logs/opf_case.m
function mpc = /Users/pekap/Desktop/matlab/OOP_grid/logs/opf_case

%% MATPOWER Case Format : Version 2
mpc.version = '2';

%%-----  Power Flow Data  -----%%
%% system MVA base
mpc.baseMVA = 100;

%% bus data
%	bus_i	type	Pd	Qd	Gs	Bs	area	Vm	Va	baseKV	zone	Vmax	Vmin	lam_P	lam_Q	mu_Vmax	mu_Vmin
mpc.bus = [
	1	1	0	0	0	0	1	1.09901695	3.76313477	220	1	1.11	0.95	91.4373	0.0000	0.0000	0.0000;
	2	1	0	0	0	0	1	1.10641111	2.29980583	220	1	1.11	0.95	91.4154	0.0000	0.0000	0.0000;
	3	1	0	0	0	0	1	1.08147917	-16.0584992	220	1	1.11	0.95	92.2605	0.0000	0.0000	0.0000;
	4	1	0	0	0	0	1	1.09807427	-0.351453208	220	1	1.11	0.95	91.6987	0.0000	0.0000	0.0000;
	5	1	0	0	0	0	1	1.09808416	-0.349340748	220	1	1.11	0.95	91.6994	0.0000	0.0000	0.0000;
	6	1	0	0	0	0	1	1.0780827	-10.7086076	220	1	1.11	0.95	91.8535	0.0000	0.0000	0.0000;
	7	1	0	0	0	0	1	1.07816582	-10.6957344	220	1	1.11	0.95	91.8533	0.0000	0.0000	0.0000;
	8	1	0	0	0	-50	1	1.04221442	-5.82604969	400	1	1.05	0.95	91.7394	0.0000	0.0000	0.0000;
	9	1	0	0	0	0	1	1.042245	-5.82785197	400	1	1.05	0.95	91.7395	0.0000	0.0000	0.0000;
	10	1	0	0	0	0	1	1.07134147	-8.4991288	220	1	1.11	0.95	91.8626	0.0000	0.0000	0.0000;
	11	1	0	0	0	0	1	1.07131324	-8.50470997	220	1	1.11	0.95	91.8625	0.0000	0.0000	0.0000;
	12	1	0	0	0	0	1	1.07131022	-8.50111256	220	1	1.11	0.95	91.8620	0.0000	0.0000	0.0000;
	13	1	0	0	0	0	1	1.07129008	-8.51812961	220	1	1.11	0.95	91.8627	0.0000	0.0000	0.0000;
	14	1	0	0	0	-50	1	1.03622635	-5.06462901	400	1	1.05	0.95	91.6452	0.0000	0.0000	0.0000;
	15	1	0	0	0	0	1	1.05	-7.15142588	400	1	1.05	0.95	91.8074	0.0000	0.0000	0.0000;
	16	1	0	0	0	0	1	1.05	-7.15113728	400	1	1.05	0.95	91.8074	0.0000	0.0000	0.0000;
	17	1	0	0	0	0	1	1.07530273	-13.7947622	220	1	1.11	0.95	92.2223	0.0000	0.0000	0.0000;
	18	1	0	0	0	0	1	1.07524684	-13.7954725	220	1	1.11	0.95	92.2230	0.0000	0.0000	0.0000;
	19	1	0	0	0	0	1	1.1008412	0.297624395	220	1	1.11	0.95	91.6820	0.0000	0.0000	0.0000;
	20	1	0	0	0	0	1	1.10086258	0.290959855	220	1	1.11	0.95	91.6830	0.0000	0.0000	0.0000;
	21	1	0	0	0	0	1	1.08232888	-8.58400533	220	1	1.11	0.95	92.2043	0.0000	0.0000	0.0000;
	22	1	0	0	0	0	1	1.08232888	-8.5838629	220	1	1.11	0.95	92.2043	0.0000	0.0000	0.0000;
	23	1	0	0	0	0	1	1.06873004	-8.51226773	220	1	1.11	0.95	91.8312	0.0000	0.0000	0.0000;
	24	1	0	0	0	0	1	1.10263319	0.799093201	220	1	1.11	0.95	91.5323	0.0000	0.0000	0.0000;
	25	1	0	0	0	-50	1	1.03835173	-9.29198505	400	1	1.05	0.95	92.0527	0.0000	0.0000	0.0000;
	26	2	48.178	65.087	0	0	1	1.10841333	4.07976586	220	1	1.11	0.95	91.4384	0.0000	0.0000	0.0000;
	27	2	28.145	35.087	0	0	1	1.10753428	2.3711346	220	1	1.11	0.95	91.4196	0.0000	0.0000	0.0000;
	28	3	0	0	0	0	1	1.04498289	1.77808	400	1	1.05	0.95	91.2493	0.0000	0.0000	0.0000;
	29	2	44.698	72	0	0	1	1.04497609	1.78738521	400	1	1.05	0.95	91.2483	0.0000	0.0000	0.0000;
	30	1	0	0	0	0	1	1.07648039	-8.84675128	220	1	1.11	0.95	92.0494	0.0000	0.0000	0.0000;
	31	1	0	0	0	0	1	1.0465012	-5.84919827	400	1	1.05	0.95	91.0065	0.0000	0.0000	0.0000;
	32	1	0	0	0	0	1	1.06914504	-8.70627966	220	1	1.11	0.95	91.8616	0.0000	0.0000	0.0000;
	33	1	0	0	0	0	1	1.09945794	-2.27974455	220	1	1.11	0.95	92.0466	0.0000	0.0000	0.0000;
	34	1	0	0	0	0	1	1.11	-2.52086933	220	2	1.11	0.95	91.5058	0.0000	0.0000	0.0000;
	35	1	0	0	0	0	1	1.08056087	-4.11137688	220	2	1.11	0.95	91.3332	0.0000	0.0000	0.0000;
	36	1	0	0	0	0	1	1.09703909	-3.81899875	220	2	1.11	0.95	91.3370	0.0000	0.0000	0.0000;
	37	1	0	0	0	0	1	1.09699495	-3.51067873	220	2	1.11	0.95	91.3369	0.0000	0.0000	0.0000;
	38	1	0	0	0	0	1	1.10027246	-1.7561799	220	2	1.11	0.95	91.5023	0.0000	0.0000	0.0000;
	39	1	0	0	0	0	1	1.10711695	-4.06672846	220	2	1.11	0.95	91.3091	0.0000	0.0000	0.0000;
	40	1	0	0	0	0	1	1.10705833	-4.07156772	220	2	1.11	0.95	91.3085	0.0000	0.0000	0.0000;
	41	1	0	0	0	0	1	1.0389123	-3.85252548	400	2	1.05	0.95	91.3263	0.0000	0.0000	0.0000;
	42	2	13	0	0	0	1	1.08432732	-3.54054143	220	2	1.11	0.95	91.6203	0.0000	0.0000	0.0000;
	43	2	13	0	0	0	1	1.08435769	-3.52965362	220	2	1.11	0.95	91.6196	0.0000	0.0000	0.0000;
	44	2	25	0	0	0	1	1.04948652	-3.72209878	400	2	1.05	0.95	91.6139	0.0000	0.0000	0.0000;
	45	1	0	0	0	0	1	1.0495061	-3.71982623	400	2	1.05	0.95	91.6138	0.0000	0.0000	0.0000;
	46	1	0	0	0	0	1	1.10661913	-4.42637506	220	2	1.11	0.95	91.3139	0.0000	0.0000	0.0000;
	47	1	0	0	0	0	1	1.03879272	-7.48377808	400	2	1.05	0.95	91.3212	0.0000	0.0000	0.0000;
	48	1	0	0	0	0	1	1.03879657	-7.48931035	400	2	1.05	0.95	91.3212	0.0000	0.0000	0.0000;
	49	1	0	0	0	0	1	1.04662961	-3.28229677	400	2	1.05	0.95	91.5990	0.0000	0.0000	0.0000;
	50	1	0	0	0	0	1	1.10035494	-1.11737863	220	2	1.11	0.95	91.4894	0.0000	0.0000	0.0000;
	51	1	0	0	0	0	1	1.10032972	-1.11573735	220	2	1.11	0.95	91.4894	0.0000	0.0000	0.0000;
	52	1	0	0	0	0	1	1.04779582	-4.3027415	400	2	1.05	0.95	91.4456	0.0000	0.0000	0.0000;
	53	1	0	0	0	0	1	1.04779226	-4.30189147	400	2	1.05	0.95	91.4451	0.0000	0.0000	0.0000;
	54	1	0	0	0	0	1	1.09777477	-3.35312522	220	2	1.11	0.95	91.3060	0.0000	0.0000	0.0000;
	55	2	13	0	0	0	1	1.09774462	-3.72079938	220	2	1.11	0.95	91.3061	0.0000	0.0000	0.0000;
	56	2	13	0	0	0	1	1.04594381	-3.78254542	400	2	1.05	0.95	91.3460	0.0000	0.0000	0.0000;
	57	2	13	0	0	0	1	1.04592721	-3.78611378	400	2	1.05	0.95	91.3463	0.0000	0.0000	0.0000;
	58	2	67.882	25.273	0	0	1	1.09017111	-3.57367978	220	2	1.11	0.95	91.5776	0.0000	0.0000	0.0000;
	59	1	0	0	0	0	1	1.09023741	-3.5685686	220	2	1.11	0.95	91.5775	0.0000	0.0000	0.0000;
	60	1	0	0	0	0	1	1.10325076	-4.57165397	220	2	1.11	0.95	91.3064	0.0000	0.0000	0.0000;
	61	1	0	0	0	0	1	1.08983537	-4.07490576	220	2	1.11	0.95	91.5383	0.0000	0.0000	0.0000;
	62	1	0	0	0	0	1	1.08979968	-4.07415514	220	2	1.11	0.95	91.5387	0.0000	0.0000	0.0000;
	63	1	0	0	0	0	1	1.03752351	-5.03453146	400	2	1.05	0.95	91.3218	0.0000	0.0000	0.0000;
	64	1	0	0	0	0	1	1.03754706	-5.07761691	400	2	1.05	0.95	91.3219	0.0000	0.0000	0.0000;
	65	1	0	224.802	0	0	1	1.04966017	-5.03456782	750	2	1.05	0.9	91.3218	0.0000	0.0000	0.0000;
	66	1	0	0	0	0	1	1.10117201	-3.76601706	220	2	1.11	0.95	91.3959	0.0000	0.0000	0.0000;
	67	1	0	0	0	0	1	1.10182034	-3.65640234	220	2	1.11	0.95	91.3954	0.0000	0.0000	0.0000;
	68	1	0	0	0	0	1	1.09693203	-0.622612779	220	2	1.11	0.95	91.4850	0.0000	0.0000	0.0000;
	69	1	0	0	0	0	1	1.09999164	-8.40274783	220	3	1.11	0.95	91.1574	0.0000	0.0000	0.0000;
	70	1	0	0	0	0	1	1.10080252	-4.5092608	220	3	1.11	0.95	91.1814	0.0000	0.0000	0.0000;
	71	1	0	0	0	0	1	1.10079769	-4.50224626	220	3	1.11	0.95	91.1816	0.0000	0.0000	0.0000;
	72	1	0	0	0	0	1	1.08637685	-6.53992385	220	3	1.11	0.95	90.9318	0.0000	0.0000	0.0000;
	73	1	0	0	0	0	1	1.08638853	-6.51807409	220	3	1.11	0.95	90.9319	0.0000	0.0000	0.0000;
	74	1	0	0	0	0	1	1.09513495	-4.9806596	220	3	1.11	0.95	90.6560	0.0000	0.0000	0.0000;
	75	1	0	0	0	0	1	1.09511426	-4.98260027	220	3	1.11	0.95	90.6559	0.0000	0.0000	0.0000;
	76	1	0	0	0	0	1	1.08126985	-12.2748401	220	3	1.11	0.95	90.8876	0.0000	0.0000	0.0000;
	77	1	0	0	0	0	1	1.08126321	-12.2810891	220	3	1.11	0.95	90.8876	0.0000	0.0000	0.0000;
	78	2	27	70	0	0	1	1.08788443	-6.12262572	220	3	1.11	0.95	90.9427	0.0000	0.0000	0.0000;
	79	2	9	21	0	0	1	1.08838353	-7.5034075	220	3	1.11	0.95	90.9241	0.0000	0.0000	0.0000;
	80	1	4.602	0.91	0	0	1	1.0873544	-7.45331781	220	3	1.11	0.95	90.8516	0.0000	0.0000	0.0000;
	81	1	0	0	0	0	1	1.08734889	-7.45430848	220	3	1.11	0.95	90.8521	0.0000	0.0000	0.0000;
	82	2	18	57	0	0	1	1.03880555	-7.52638894	400	3	1.05	0.95	90.0268	0.0000	0.0000	0.0000;
	83	1	0	0	0	0	1	1.10792765	-9.44514615	220	3	1.11	0.95	89.9709	0.0000	0.0000	0.0000;
	84	1	0	0	0	0	1	1.09163839	-7.5054303	220	3	1.11	0.95	90.6978	0.0000	0.0000	0.0000;
	85	1	0	0	0	0	1	1.09160071	-7.50721706	220	3	1.11	0.95	90.6996	0.0000	0.0000	0.0000;
	86	1	32.969	-8.4	0	0	1	1.10063007	-1.81588169	220	3	1.11	0.95	91.1638	0.0000	0.0000	0.0000;
	87	1	0	0	0	0	1	1.10062882	-1.82081283	220	3	1.11	0.95	91.1637	0.0000	0.0000	0.0000;
	88	1	0	0	0	0	1	1.08660428	-6.60741487	220	3	1.11	0.95	90.9312	0.0000	0.0000	0.0000;
	89	1	0	0	0	0	1	1.0865771	-6.60886182	220	3	1.11	0.95	90.9313	0.0000	0.0000	0.0000;
	90	1	0	0	0	0	1	1.10044737	-1.39987938	220	3	1.11	0.95	91.1694	0.0000	0.0000	0.0000;
	91	1	0	0	0	0	1	1.10046273	-1.40473369	220	3	1.11	0.95	91.1694	0.0000	0.0000	0.0000;
	92	1	0	0	0	0	1	1.0486485	0.0648135801	400	3	1.05	0.95	91.1415	0.0000	0.0000	0.0000;
	93	1	0	0	0	0	1	1.04863944	0.0633134887	400	3	1.05	0.95	91.1412	0.0000	0.0000	0.0000;
	94	1	0	0	0	0	1	1.08997867	-6.89731335	220	3	1.11	0.95	90.8667	0.0000	0.0000	0.0000;
	95	1	0	0	0	0	1	1.09000111	-6.9051662	220	3	1.11	0.95	90.8657	0.0000	0.0000	0.0000;
	96	1	0	0	0	0	1	1.10070538	-9.50023984	220	3	1.11	0.95	90.3156	0.0000	0.0000	0.0000;
	97	1	0	0	0	0	1	1.10074691	-9.50008189	220	3	1.11	0.95	90.3139	0.0000	0.0000	0.0000;
	98	2	9.938	2.19	0	0	1	1.09119547	-4.46184115	220	3	1.11	0.95	91.0075	0.0000	0.0000	0.0000;
	99	1	16.652	3.293	0	0	1	1.09121595	-4.457806	220	3	1.11	0.95	91.0082	0.0000	0.0000	0.0000;
	100	1	0	0	0	0	1	1.10077821	-4.5020893	220	3	1.11	0.95	91.1816	0.0000	0.0000	0.0000;
	101	1	0	0	0	0	1	1.10078309	-4.50916283	220	3	1.11	0.95	91.1814	0.0000	0.0000	0.0000;
	102	1	0	0	0	0	1	1.08189867	-11.6998496	220	3	1.11	0.95	90.8883	0.0000	0.0000	0.0000;
	103	1	0	0	0	0	1	1.08190269	-11.6873315	220	3	1.11	0.95	90.8884	0.0000	0.0000	0.0000;
	104	2	14	40	0	0	1	1.09241883	-7.46894878	220	3	1.11	0.95	90.7354	0.0000	0.0000	0.0000;
	105	1	0	0	0	0	1	1.09230932	-7.49693077	220	3	1.11	0.95	90.7368	0.0000	0.0000	0.0000;
	106	2	7	18	0	0	1	1.09021237	-6.20101704	220	3	1.11	0.95	90.9261	0.0000	0.0000	0.0000;
	107	1	0	0	0	0	1	1.09016752	-6.19766338	220	3	1.11	0.95	90.9272	0.0000	0.0000	0.0000;
	108	1	27.63	5.872	0	0	1	1.09446023	-3.75630231	220	3	1.11	0.95	91.0883	0.0000	0.0000	0.0000;
	109	1	17.522	3.337	0	0	1	1.09447484	-3.76541684	220	3	1.11	0.95	91.0882	0.0000	0.0000	0.0000;
	110	1	0	0	0	0	1	1.08576819	-7.9651388	220	3	1.11	0.95	90.9561	0.0000	0.0000	0.0000;
	111	1	0	0	0	0	1	1.08776051	-7.23374222	220	3	1.11	0.95	90.7511	0.0000	0.0000	0.0000;
	112	1	0	0	0	0	1	1.08776673	-7.23501531	220	3	1.11	0.95	90.7516	0.0000	0.0000	0.0000;
	113	1	0	0	0	0	1	1.0867428	-7.52497498	220	3	1.11	0.95	90.8874	0.0000	0.0000	0.0000;
	114	1	0	0	0	0	1	1.08674957	-7.51810793	220	3	1.11	0.95	90.8878	0.0000	0.0000	0.0000;
	115	1	0	0	0	0	1	1.03673989	-2.77284832	400	3	1.05	0.95	90.9955	0.0000	0.0000	0.0000;
	116	1	0	0	0	0	1	1.08924856	-5.8372655	220	3	1.11	0.95	90.9643	0.0000	0.0000	0.0000;
	117	2	8	15	0	0	1	1.08923153	-6.64813216	220	3	1.11	0.95	90.9646	0.0000	0.0000	0.0000;
	118	1	0	0	0	0	1	1.08842565	-7.52049652	220	3	1.11	0.95	91.0037	0.0000	0.0000	0.0000;
	119	1	0	0	0	0	1	1.08844016	-7.51253841	220	3	1.11	0.95	91.0042	0.0000	0.0000	0.0000;
	120	1	0	0	0	0	1	1.04710684	-4.23238974	400	3	1.05	0.95	91.2771	0.0000	0.0000	0.0000;
	121	1	0	0	0	0	1	1.04714483	-4.22751553	400	3	1.05	0.95	91.2770	0.0000	0.0000	0.0000;
	122	1	0	0	0	0	1	1.04312539	-2.19649543	400	3	1.05	0.95	91.0966	0.0000	0.0000	0.0000;
	123	1	0	0	0	0	1	1.04317416	-2.19280091	400	3	1.05	0.95	91.0973	0.0000	0.0000	0.0000;
	124	1	0	0	0	0	1	1.08520813	-8.04228966	220	3	1.11	0.95	90.9820	0.0000	0.0000	0.0000;
	125	1	2.929	0.867	0	0	1	1.09803293	-5.86959342	220	3	1.11	0.95	90.6673	0.0000	0.0000	0.0000;
	126	2	19.898	27.707	0	0	1	1.09785256	-5.74209834	220	3	1.11	0.95	90.6680	0.0000	0.0000	0.0000;
	127	2	12.2	25.8	0	0	1	1.03152188	-2.32162682	400	3	1.05	0.95	90.7751	0.0000	0.0000	0.0000;
	128	1	0	0	0	0	1	1.03145106	-2.32429425	400	3	1.05	0.95	90.7762	0.0000	0.0000	0.0000;
	129	1	0	0	0	0	1	1.10052236	-1.92516905	220	3	1.11	0.95	91.1615	0.0000	0.0000	0.0000;
	130	1	0	0	0	0	1	1.1004765	-1.92997842	220	3	1.11	0.95	91.1616	0.0000	0.0000	0.0000;
	131	1	0	0	0	0	1	1.09984787	-1.83163106	220	3	1.11	0.95	91.1516	0.0000	0.0000	0.0000;
	132	2	137	9	0	0	1	1.0806527	-12.7637995	220	3	1.11	0.95	90.8879	0.0000	0.0000	0.0000;
	133	2	137	6	0	0	1	1.08065153	-12.7732502	220	3	1.11	0.95	90.8879	0.0000	0.0000	0.0000;
	134	1	0.515	1.973	0	0	1	1.1014341	-5.526241	220	4	1.11	0.95	92.3338	0.0000	0.0000	0.0000;
	135	2	15.242	14.277	0	0	1	1.10145854	-3.39974906	220	4	1.11	0.95	92.3339	0.0000	0.0000	0.0000;
	136	1	0	0	0	0	1	1.10903448	-8.98208136	220	4	1.11	0.95	89.3416	0.0000	0.0000	0.0000;
	137	1	0	0	0	0	1	1.10842817	-8.1804818	220	4	1.11	0.95	89.8654	0.0000	0.0000	0.0000;
	138	1	0	0	0	0	1	1.03364808	-7.16508525	400	4	1.05	0.95	87.4041	0.0000	0.0000	0.0000;
	139	1	0	0	0	0	1	1.03366815	-7.17163682	400	4	1.05	0.95	87.3926	0.0000	0.0000	0.0000;
	140	1	0	0	0	0	1	1.10182129	-13.5524766	220	4	1.11	0.95	94.2839	0.0000	0.0000	0.0000;
	141	1	0	0	0	0	1	1.09365824	-14.2176526	220	4	1.11	0.95	96.8366	0.0000	0.0000	0.0000;
	142	1	0	0	0	0	1	1.09365824	-14.2154662	220	4	1.11	0.95	96.8365	0.0000	0.0000	0.0000;
	143	1	0	0	0	0	1	1.10247589	-11.8240617	220	4	1.11	0.95	98.9626	0.0000	0.0000	0.0000;
	144	1	0	0	0	0	1	1.10641799	-10.4502605	220	4	1.11	0.95	88.5061	0.0000	0.0000	0.0000;
	145	1	0	0	0	0	1	1.10641799	-10.4508506	220	4	1.11	0.95	88.5061	0.0000	0.0000	0.0000;
	146	1	7.636	13.257	0	0	1	1.09956097	-7.67385351	220	4	1.11	0.95	92.7059	0.0000	0.0000	0.0000;
	147	1	0	0	0	0	1	1.09962379	-7.67561362	220	4	1.11	0.95	92.7084	0.0000	0.0000	0.0000;
	148	2	10.87	14.867	0	0	1	1.09637398	-12.0484489	220	4	1.11	0.95	96.7504	0.0000	0.0000	0.0000;
	149	1	0	0	0	0	1	1.09645551	-12.0566108	220	4	1.11	0.95	96.7425	0.0000	0.0000	0.0000;
	150	2	10.989	15	0	0	1	1.03393381	-15.9790159	400	4	1.05	0.95	95.4076	0.0000	0.0000	0.0000;
	151	2	20.672	21.479	0	0	1	1.03392466	-15.9776798	400	4	1.05	0.95	95.4070	0.0000	0.0000	0.0000;
	152	1	0	0	0	0	1	1.09840622	-12.8234512	220	4	1.11	0.95	94.9032	0.0000	0.0000	0.0000;
	153	1	0	0	0	0	1	1.10775397	-8.13857521	220	4	1.11	0.95	101.2702	0.0000	0.0000	0.0000;
	154	1	0	0	0	0	1	1.10775539	-8.13979455	220	4	1.11	0.95	101.2554	0.0000	0.0000	0.0000;
	155	2	0	0	0	0	1	1.10551624	-7.32397329	220	4	1.11	0.95	90.7325	0.0000	0.0000	0.0000;
	156	2	13.87	33	0	0	1	1.10552981	-7.31987599	220	4	1.11	0.95	90.7466	0.0000	0.0000	0.0000;
	157	1	0	0	0	0	1	1.02100529	-5.82152632	400	4	1.05	0.95	89.6807	0.0000	0.0000	0.0000;
	158	2	9.989	25	0	0	1	1.02096952	-5.81814259	400	4	1.05	0.95	89.6834	0.0000	0.0000	0.0000;
	159	1	0	0	0	0	1	1.09817655	-13.8174531	220	4	1.11	0.95	96.8743	0.0000	0.0000	0.0000;
	160	1	0	0	0	0	1	1.09817655	-13.81753	220	4	1.11	0.95	96.8743	0.0000	0.0000	0.0000;
	161	1	0	0	0	0	1	1.03812778	-9.40778383	400	4	1.05	0.95	88.9558	0.0000	0.0000	0.0000;
	162	1	0	0	0	0	1	1.03812884	-8.8969215	400	4	1.05	0.95	88.7513	0.0000	0.0000	0.0000;
	163	1	0	0	0	0	1	1.03812752	-7.70096251	400	4	1.05	0.95	88.7464	0.0000	0.0000	0.0000;
	164	2	11.664	11	0	0	1	1.10106797	-7.7861686	220	4	1.11	0.95	92.7205	0.0000	0.0000	0.0000;
	165	2	11.564	10.667	0	0	1	1.10108377	-7.80938416	220	4	1.11	0.95	92.7244	0.0000	0.0000	0.0000;
	166	1	0	0	0	0	1	1.10108377	-7.80878915	220	4	1.11	0.95	92.7244	0.0000	0.0000	0.0000;
	167	1	0	0	0	0	1	1.10752003	-19.4443003	220	4	1.11	0.95	94.4795	0.0000	0.0000	0.0000;
	168	1	0	0	0	0	1	1.09296752	-14.2385077	220	4	1.11	0.95	96.8418	0.0000	0.0000	0.0000;
	169	1	0	0	0	0	1	1.1078635	-14.8141956	220	4	1.11	0.95	94.6931	0.0000	0.0000	0.0000;
	170	1	0	0	0	0	1	1.10786443	-14.8172667	220	4	1.11	0.95	94.6934	0.0000	0.0000	0.0000;
	171	1	0	0	0	0	1	1.02739346	-16.6817986	400	4	1.05	0.95	94.9719	0.0000	0.0000	0.0000;
	172	1	0	0	0	0	1	1.02739346	-16.6825036	400	4	1.05	0.95	94.9719	0.0000	0.0000	0.0000;
	173	1	0	0	0	0	1	1.09726038	-8.82253959	220	4	1.11	0.95	94.4672	0.0000	0.0000	0.0000;
	174	1	0	0	0	0	1	1.09727291	-9.8499114	220	4	1.11	0.95	94.3117	0.0000	0.0000	0.0000;
	175	1	0	0	0	0	1	1.09396773	-11.1792397	220	4	1.11	0.95	93.6830	0.0000	0.0000	0.0000;
	176	1	0	0	0	0	1	1.10867094	-9.5342554	220	4	1.11	0.95	89.2983	0.0000	0.0000	0.0000;
	177	1	0	0	0	0	1	1.10867862	-10.0354659	220	4	1.11	0.95	89.3000	0.0000	0.0000	0.0000;
	178	1	0	0	0	0	1	1.11	-10.0852914	220	4	1.11	0.95	89.3516	0.0000	0.0000	0.0000;
	179	1	0	0	0	0	1	1.11	-10.0849787	220	4	1.11	0.95	89.3516	0.0000	0.0000	0.0000;
	180	2	3.13	1.5	0	0	1	1.11	-7.0218383	220	4	1.11	0.95	101.2696	0.0000	0.0000	0.0000;
	181	1	0	0	0	0	1	1.09767668	-9.63914655	220	4	1.11	0.95	104.2453	0.0000	0.0000	0.0000;
	182	1	0	0	0	0	1	1.09296525	-14.2750435	220	5	1.11	0.95	92.8647	0.0000	0.0000	0.0000;
	183	1	0	0	0	0	1	1.10125139	-22.1343447	220	5	1.11	0.95	94.2440	0.0000	0.0000	0.0000;
	184	1	0	0	0	0	1	1.03509697	-21.6114244	400	5	1.05	0.95	94.3465	0.0000	0.0000	0.0000;
	185	1	0	0	0	0	1	1.03511055	-21.6029065	400	5	1.05	0.95	94.3483	0.0000	0.0000	0.0000;
	186	1	0	0	0	0	1	1.03630578	-23.8747911	400	5	1.05	0.95	93.2782	0.0000	0.0000	0.0000;
	187	1	0	0	0	0	1	1.03632878	-23.8828377	400	5	1.05	0.95	93.2788	0.0000	0.0000	0.0000;
	188	1	0	0	0	0	1	1.10088306	-22.3783195	220	5	1.11	0.95	93.4275	0.0000	0.0000	0.0000;
	189	1	0	0	0	0	1	1.10090572	-22.3818628	220	5	1.11	0.95	93.4286	0.0000	0.0000	0.0000;
	190	1	0	0	0	0	1	1.0998252	-17.3506701	220	5	1.11	0.95	92.8206	0.0000	0.0000	0.0000;
	191	1	0	0	0	0	1	1.09980484	-15.2337864	220	5	1.11	0.95	92.8208	0.0000	0.0000	0.0000;
	192	1	0	0	0	0	1	1.02566462	-17.2940342	400	5	1.05	0.95	92.7222	0.0000	0.0000	0.0000;
	193	1	0	0	0	0	1	1.09343748	-13.7444959	220	5	1.11	0.95	92.8651	0.0000	0.0000	0.0000;
	194	1	0	0	0	0	1	1.09343509	-13.7379626	220	5	1.11	0.95	92.8646	0.0000	0.0000	0.0000;
	195	1	0	0	0	0	1	1.04343054	-24.0115551	400	5	1.05	0.95	93.1500	0.0000	0.0000	0.0000;
	196	1	0	0	0	0	1	1.04342714	-24.0122714	400	5	1.05	0.95	93.1497	0.0000	0.0000	0.0000;
	197	1	0	0	0	0	1	1.07143543	-18.7356941	220	5	1.11	0.95	92.6835	0.0000	0.0000	0.0000;
	198	1	0	0	0	0	1	1.0714218	-18.73416	220	5	1.11	0.95	92.6829	0.0000	0.0000	0.0000;
	199	1	0	0	0	-117	1	1.02691753	-23.4818578	400	5	1.05	0.95	93.9523	0.0000	0.0000	0.0000;
	200	1	0	0	0	0	1	1.02696313	-23.4747512	400	5	1.05	0.95	93.9539	0.0000	0.0000	0.0000;
...
];

%% generator data
%	bus	Pg	Qg	Qmax	Qmin	Vg	mBase	status	Pmax	Pmin	Pc1	Pc2	Qc1min	Qc1max	Qc2min	Qc2max	ramp_agc	ramp_10	ramp_30	ramp_q	apf	mu_Pmax	mu_Pmin	mu_Qmax	mu_Qmin
mpc.gen = [
	17	0	0	120	-22	1.07567	241.9	0	210	140	0	0	0	0	0	0	0	0	0	0	0	0.0000	0.0000	0.0000	0.0000;
	17	0	0	120	-22	1.07567	233.2	0	200	140	0	0	0	0	0	0	0	0	0	0	0	0.0000	0.0000	0.0000	0.0000;
	26	369.999105	2.94540542	190	-19	1.10841333	415.9	1	370	290	0	0	0	0	0	0	0	0	0	0	0	15.3415	0.0032	0.0000	0.0000;
	27	359.999095	-18.9999786	190	-19	1.10753428	407.1	1	360	290	0	0	0	0	0	0	0	0	0	0	0	15.3232	0.0036	0.0000	0.0000;
	27	0	0	190	-19	1.08827	407.1	0	360	290	0	0	0	0	0	0	0	0	0	0	0	0.0000	0.0000	0.0000	0.0000;
	27	0	0	190	-19	1.08827	415.9	0	370	290	0	0	0	0	0	0	0	0	0	0	0	0.0000	0.0000	0.0000	0.0000;
	26	369.999105	2.94540542	190	-19	1.10841333	415.9	1	370	290	0	0	0	0	0	0	0	0	0	0	0	15.3415	0.0032	0.0000	0.0000;
	28	369.999002	-18.9999819	190	-19	1.04498289	415.9	1	370	290	0	0	0	0	0	0	0	0	0	0	0	15.1525	0.0032	0.0000	0.0000;
	28	0	0	190	-19	1.027	415.9	0	370	290	0	0	0	0	0	0	0	0	0	0	0	0.0000	0.0000	0.0000	0.0000;
	28	0	0	190	-19	1.027	415.9	0	370	290	0	0	0	0	0	0	0	0	0	0	0	0.0000	0.0000	0.0000	0.0000;
	29	0	0	190	-19	1.027	415.9	0	370	290	0	0	0	0	0	0	0	0	0	0	0	0.0000	0.0000	0.0000	0.0000;
	29	369.999003	-18.9999819	190	-19	1.04497609	415.9	1	370	290	0	0	0	0	0	0	0	0	0	0	0	15.1514	0.0032	0.0000	0.0000;
	29	369.999003	-18.9999819	190	-19	1.04497609	415.9	1	370	290	0	0	0	0	0	0	0	0	0	0	0	15.1514	0.0032	0.0000	0.0000;
	42	130.003949	-33.9999988	135	-34	1.08432732	253.9	1	215	130	0	0	0	0	0	0	0	0	0	0	0	0.0029	10.4327	0.0000	0.0000;
	42	0	0	130	-34	1.09086	242.7	0	205	135	0	0	0	0	0	0	0	0	0	0	0	0.0000	0.0000	0.0000	0.0000;
	42	0	0	145	-34	1.09086	267.7	0	225	110	0	0	0	0	0	0	0	0	0	0	0	0.0000	0.0000	0.0000	0.0000;
	43	0	0	145	-34	1.09091	267.7	0	225	120	0	0	0	0	0	0	0	0	0	0	0	0.0000	0.0000	0.0000	0.0000;
	43	130.003948	-33.9999988	145	-34	1.08435769	267.7	1	225	130	0	0	0	0	0	0	0	0	0	0	0	0.0026	10.4330	0.0000	0.0000;
	43	0	0	130	-34	1.09091	242.7	0	205	135	0	0	0	0	0	0	0	0	0	0	0	0.0000	0.0000	0.0000	0.0000;
	44	255.00394	-46.9999988	363	-47	1.04948652	646.5	1	535	255	0	0	0	0	0	0	0	0	0	0	0	0.0009	10.4370	0.0000	0.0000;
	44	0	0	348	-100	1.04817	659.3	0	560	250	0	0	0	0	0	0	0	0	0	0	0	0.0000	0.0000	0.0000	0.0000;
	54	0	0	104	-1	1.09127	247.9	0	225	129	0	0	0	0	0	0	0	0	0	0	0	0.0000	0.0000	0.0000	0.0000;
	55	129.002474	-15.999999	130	-16	1.09774462	259.9	1	225	129	0	0	0	0	0	0	0	0	0	0	0	0.0026	14.0465	0.0000	0.0000;
	54	0	0	130	-16	1.09127	259.9	0	225	129	0	0	0	0	0	0	0	0	0	0	0	0.0000	0.0000	0.0000	0.0000;
	56	129.002495	-15.9999987	130	-16	1.04594381	259.9	1	225	129	0	0	0	0	0	0	0	0	0	0	0	0.0026	14.0065	0.0000	0.0000;
	57	129.002495	-15.9999987	130	-16	1.04592721	259.9	1	225	129	0	0	0	0	0	0	0	0	0	0	0	0.0026	14.0062	0.0000	0.0000;
	57	0	0	104	-1	1.03932	247.9	0	225	129	0	0	0	0	0	0	0	0	0	0	0	0.0000	0.0000	0.0000	0.0000;
	57	0	0	130	-16	1.03932	259.9	0	225	129	0	0	0	0	0	0	0	0	0	0	0	0.0000	0.0000	0.0000	0.0000;
	58	39.7	6.99070859e-07	30	0	1.09017111	57.7	1	39.7	39.7	0	0	0	0	0	0	0	0	0	0	0	0.0000	-91.5776	0.0000	0.0000;
	78	140.011439	13.4123001	123	-15	1.08788443	256.4	1	225	140	0	0	0	0	0	0	0	0	0	0	0	0.0030	4.3703	0.0000	0.0000;
	78	140.011439	13.4123001	123	-15	1.08788443	256.4	1	225	140	0	0	0	0	0	0	0	0	0	0	0	0.0030	4.3703	0.0000	0.0000;
	79	0	0	123	-15	1.07077	252	0	220	140	0	0	0	0	0	0	0	0	0	0	0	0.0000	0.0000	0.0000	0.0000;
	79	0	0	123	-15	1.07077	256.4	0	225	140	0	0	0	0	0	0	0	0	0	0	0	0.0000	0.0000	0.0000	0.0000;
	79	140.011476	-14.9999726	123	-15	1.08838353	256.4	1	225	140	0	0	0	0	0	0	0	0	0	0	0	0.0030	4.3889	0.0000	0.0000;
	82	323.421164	-30.999992	232	-31	1.03880555	445.2	1	380	220	0	0	0	0	0	0	0	0	0	0	0	0.0071	0.0102	0.0000	0.0000;
	82	0	0	228	-30	1.0186	434.6	0	370	220	0	0	0	0	0	0	0	0	0	0	0	0.0000	0.0000	0.0000	0.0000;
	98	8.998	1.0152952e-05	1	0	1.09119547	12	1	8.998	8.998	0	0	0	0	0	0	0	0	0	0	0	0.0000	-91.0075	0.0000	0.0000;
	98	5.998	1.0152952e-05	1	0	1.09119547	6.1	1	5.998	5.998	0	0	0	0	0	0	0	0	0	0	0	0.0000	-91.0075	0.0000	0.0000;
	104	134.036536	78.3683041	123	-15	1.09241883	256.4	1	225	134	0	0	0	0	0	0	0	0	0	0	0	0.0030	2.0477	0.0000	0.0000;
	105	0	0	123	-15	1.06917	256.4	0	225	134	0	0	0	0	0	0	0	0	0	0	0	0.0000	0.0000	0.0000	0.0000;
	106	79.0181349	3.34094003	80	-2	1.09021237	144.2	1	120	79	0	0	0	0	0	0	0	0	0	0	0	0.0069	3.1708	0.0000	0.0000;
	107	0	0	80	-2	1.0684	144.2	0	120	79	0	0	0	0	0	0	0	0	0	0	0	0.0000	0.0000	0.0000	0.0000;
	116	0	0	90	-20	1.07086	150	0	120	90	0	0	0	0	0	0	0	0	0	0	0	0.0000	0.0000	0.0000	0.0000;
	117	70.0070264	-1.99998541	82	-2	1.08923153	145.3	1	120	70	0	0	0	0	0	0	0	0	0	0	0	0.0052	6.1606	0.0000	0.0000;
	118	0	0	40	0	1.07063	117	0	110	80	0	0	0	0	0	0	0	0	0	0	0	0.0000	0.0000	0.0000	0.0000;
	125	0	0	135	-35	1.0744	253.9	0	215	160	0	0	0	0	0	0	0	0	0	0	0	0.0000	0.0000	0.0000	0.0000;
	126	0	0	140	-35	1.07421	265	0	225	140	0	0	0	0	0	0	0	0	0	0	0	0.0000	0.0000	0.0000	0.0000;
	126	160.262988	-34.9999747	135	-35	1.09785256	253.9	1	215	160	0	0	0	0	0	0	0	0	0	0	0	0.0068	0.4988	0.0000	0.0000;
	127	140.250863	-39.9999891	140	-40	1.03152188	265	1	225	140	0	0	0	0	0	0	0	0	0	0	0	0.0035	0.3885	0.0000	0.0000;
	127	0	0	137	-40	1.01239	259.2	0	220	160	0	0	0	0	0	0	0	0	0	0	0	0.0000	0.0000	0.0000	0.0000;
	132	0	16.8603935	40	-38	1.0806527	131.2	1	0	0	0	0	0	0	0	0	0	0	0	0	0	0.0000	-90.8779	0.0000	0.0000;
	132	0	0	40	-38	1.06355	131.2	0	0	0	0	0	0	0	0	0	0	0	0	0	0	0.0000	0.0000	0.0000	0.0000;
	133	0	0	40	-38	1.06355	131.2	0	0	0	0	0	0	0	0	0	0	0	0	0	0	0.0000	0.0000	0.0000	0.0000;
	133	0	13.9352552	40	-38	1.08065153	131.2	1	0	0	0	0	0	0	0	0	0	0	0	0	0	0.0000	-90.8779	0.0000	0.0000;
	134	0	0	90	0	1.0664	150	0	120	100	0	0	0	0	0	0	0	0	0	0	0	0.0000	0.0000	0.0000	0.0000;
	134	0	0	90	0	1.0664	150	0	120	100	0	0	0	0	0	0	0	0	0	0	0	0.0000	0.0000	0.0000	0.0000;
	135	100.5021	25.8818345	90	0	1.10145854	150	1	120	100	0	0	0	0	0	0	0	0	0	0	0	0.0247	0.1208	0.0000	0.0000;
	146	0	0	12	0	1.05776	51.4	0	50	30	0	0	0	0	0	0	0	0	0	0	0	0.0000	0.0000	0.0000	0.0000;
	146	0	0	12	0	1.05776	51.4	0	50	30	0	0	0	0	0	0	0	0	0	0	0	0.0000	0.0000	0.0000	0.0000;
	147	0	0	90	0	1.05781	150	0	120	90	0	0	0	0	0	0	0	0	0	0	0	0.0000	0.0000	0.0000	0.0000;
	148	0	0	149	-48	1.09091	267.4	0	222	90	0	0	0	0	0	0	0	0	0	0	0	0.0000	0.0000	0.0000	0.0000;
	148	0	0	149	-48	1.09091	253.4	0	205	135	0	0	0	0	0	0	0	0	0	0	0	0.0000	0.0000	0.0000	0.0000;
	148	0	0	149	-48	1.09091	253.4	0	205	135	0	0	0	0	0	0	0	0	0	0	0	0.0000	0.0000	0.0000	0.0000;
	148	90.0031016	-47.9998079	149	-48	1.09637398	267.4	1	222	90	0	0	0	0	0	0	0	0	0	0	0	0.0019	19.2615	0.0000	0.0000;
	150	90.0025271	34.8087948	123	-23	1.03393381	253.8	1	222	90	0	0	0	0	0	0	0	0	0	0	0	0.0019	20.6042	0.0000	0.0000;
	151	90.0025268	-47.9939527	149	-48	1.03392466	267.4	1	222	90	0	0	0	0	0	0	0	0	0	0	0	0.0019	20.6049	0.0000	0.0000;
	151	0	0	123	-23	1.01688	253.8	0	222	90	0	0	0	0	0	0	0	0	0	0	0	0.0000	0.0000	0.0000	0.0000;
	155	94.0042943	-52.9999709	149	-53	1.10551624	278.3	1	235	94	0	0	0	0	0	0	0	0	0	0	0	0.0018	8.1093	0.0000	0.0000;
	155	0	0	149	-53	1.08864	278.3	0	235	94	0	0	0	0	0	0	0	0	0	0	0	0.0000	0.0000	0.0000	0.0000;
	155	0	0	120	0	1.08864	287.3	0	261	104	0	0	0	0	0	0	0	0	0	0	0	0.0000	0.0000	0.0000	0.0000;
	155	0	0	132	-40	1.08864	292.5	0	261	104	0	0	0	0	0	0	0	0	0	0	0	0.0000	0.0000	0.0000	0.0000;
	156	0	0	120	0	1.08864	287.3	0	261	104	0	0	0	0	0	0	0	0	0	0	0	0.0000	0.0000	0.0000	0.0000;
	156	130.004324	-21.999971	117	-22	1.10552981	236	1	205	130	0	0	0	0	0	0	0	0	0	0	0	0.0033	8.0967	0.0000	0.0000;
	156	120.004325	-19.999971	109	-20	1.10552981	233.1	1	206	120	0	0	0	0	0	0	0	0	0	0	0	0.0029	8.0963	0.0000	0.0000;
	156	0	0	109	-20	1.08864	233.1	0	206	120	0	0	0	0	0	0	0	0	0	0	0	0.0000	0.0000	0.0000	0.0000;
	158	120.002219	-19.9995618	109	-20	1.02096952	233.1	1	206	120	0	0	0	0	0	0	0	0	0	0	0	0.0029	9.1595	0.0000	0.0000;
	164	0	0	104	-23	1.05768	225.4	0	200	150	0	0	0	0	0	0	0	0	0	0	0	0.0000	0.0000	0.0000	0.0000;
	164	199.849787	68.7697086	104	-23	1.10106797	225.4	1	200	150	0	0	0	0	0	0	0	0	0	0	0	3.5076	0.0071	0.0000	0.0000;
	165	199.848532	63.2666932	104	-23	1.10108377	225.4	1	200	150	0	0	0	0	0	0	0	0	0	0	0	3.5106	0.0062	0.0000	0.0000;
	165	0	0	104	-23	1.05768	225.4	0	200	150	0	0	0	0	0	0	0	0	0	0	0	0.0000	0.0000	0.0000	0.0000;
	180	120	1.01725246e-06	110	0	1.11	219.5	1	120	120	0	0	0	0	0	0	0	0	0	0	0	0.0000	-101.2696	0.0000	0.0000;
	205	0	11.4406008	80	-30.001	1.03216802	196.1	1	0	0	0	0	0	0	0	0	0	0	0	0	0	0.0000	-93.4766	0.0000	0.0000;
	205	0	11.4406008	80	-30.001	1.03216802	196.1	1	0	0	0	0	0	0	0	0	0	0	0	0	0	0.0000	-93.4766	0.0000	0.0000;
	205	0	0	110	-60	0.98664	210.1	0	0	0	0	0	0	0	0	0	0	0	0	0	0	0.0000	0.0000	0.0000	0.0000;
	206	0	0	110	-60	0.98669	210.1	0	0	0	0	0	0	0	0	0	0	0	0	0	0	0.0000	0.0000	0.0000	0.0000;
	215	23	1.66609637e-06	20	0	1.08048469	58.5	1	23	23	0	0	0	0	0	0	0	0	0	0	0	0.0000	-91.9602	0.0000	0.0000;
	215	0	0	20	0	1.09091	53.9	0	0	0	0	0	0	0	0	0	0	0	0	0	0	0.0000	0.0000	0.0000	0.0000;
	215	0	0	20	0	1.09091	53.9	0	0	0	0	0	0	0	0	0	0	0	0	0	0	0.0000	0.0000	0.0000	0.0000;
	215	7	1.66609637e-06	20	0	1.08048469	30.5	1	7	7	0	0	0	0	0	0	0	0	0	0	0	0.0000	-91.9602	0.0000	0.0000;
	221	1.55	6.40300238e-06	1	0	1.11045282	2.3	1	1.55	1.55	0	0	0	0	0	0	0	0	0	0	0	0.0000	-89.8254	0.0000	0.0000;
	222	1.55	0.271205489	1	0	1.09951511	2.3	1	1.55	1.55	0	0	0	0	0	0	0	0	0	0	0	0.0000	-91.3200	0.0000	0.0000;
	240	6.3	4.50330155	6	0	1.05886588	9.8	1	6.3	6.3	0	0	0	0	0	0	0	0	0	0	0	0.0000	-91.9895	0.0000	0.0000;
	247	369.999032	-15.2855594	190	-19	1.04692297	415.9	1	370	290	0	0	0	0	0	0	0	0	0	0	0	15.2047	0.0031	0.0000	0.0000;
	310	0	0	7	0	1.07912	27.9	0	0	0	0	0	0	0	0	0	0	0	0	0	0	0.0000	0.0000	0.0000	0.0000;
	310	0	0	7	0	1.07912	27.9	0	0	0	0	0	0	0	0	0	0	0	0	0	0	0.0000	0.0000	0.0000	0.0000;
	310	11	6.99996938	7	4	1.10653913	30.8	1	11	11	0	0	0	0	0	0	0	0	0	0	0	0.0000	-91.7759	0.0000	0.0000;
	310	0	0	7	0	1.07912	27.9	0	0	0	0	0	0	0	0	0	0	0	0	0	0	0.0000	0.0000	0.0000	0.0000;
	310	0	0	6	0	1.07912	27.7	0	0	0	0	0	0	0	0	0	0	0	0	0	0	0.0000	0.0000	0.0000	0.0000;
	310	0	0	7	0	1.07912	27.9	0	0	0	0	0	0	0	0	0	0	0	0	0	0	0.0000	0.0000	0.0000	0.0000;
	310	0	0	7	0	1.07912	27.9	0	0	0	0	0	0	0	0	0	0	0	0	0	0	0.0000	0.0000	0.0000	0.0000;
	311	0	0	15	0	1.07689	36.7	0	0	0	0	0	0	0	0	0	0	0	0	0	0	0.0000	0.0000	0.0000	0.0000;
	311	0	0	15	0	1.07689	57	0	0	0	0	0	0	0	0	0	0	0	0	0	0	0.0000	0.0000	0.0000	0.0000;
	312	16	11.4904889	15	0	1.10435291	36.7	1	16	16	0	0	0	0	0	0	0	0	0	0	0	0.0000	-91.8558	0.0000	0.0000;
	312	0	0	15	0	1.07487	57	0	0	0	0	0	0	0	0	0	0	0	0	0	0	0.0000	0.0000	0.0000	0.0000;
	314	25	5.70513004	20	0	1.11057347	53.9	1	25	25	0	0	0	0	0	0	0	0	0	0	0	0.0000	-91.7524	0.0000	0.0000;
	314	0	0	20	0	1.08518	53.9	0	0	0	0	0	0	0	0	0	0	0	0	0	0	0.0000	0.0000	0.0000	0.0000;
	315	0	0	40	0	1.07925	107.7	0	0	0	0	0	0	0	0	0	0	0	0	0	0	0.0000	0.0000	0.0000	0.0000;
	323	2.5	2.99980348	3	0	1.10997611	4.1	1	2.5	2.5	0	0	0	0	0	0	0	0	0	0	0	0.0000	-91.7537	0.0000	0.0000;
	366	40	6.5159162	12	0	1.07288318	47.8	1	40	40	0	0	0	0	0	0	0	0	0	0	0	0.0000	-92.0869	0.0000	0.0000;
	367	40	5.70697502	12	0	1.06915612	47.8	1	40	40	0	0	0	0	0	0	0	0	0	0	0	0.0000	-92.1783	0.0000	0.0000;
	368	40	5.39221935	12	0	1.07582397	47.8	1	40	40	0	0	0	0	0	0	0	0	0	0	0	0.0000	-92.1146	0.0000	0.0000;
	369	40	0.0442144303	12	0	1.07261259	47.8	1	40	40	0	0	0	0	0	0	0	0	0	0	0	0.0000	-92.1680	0.0000	0.0000;
	386	140.001742	-45.3238537	138	-47	1.06841442	251.3	1	210	140	0	0	0	0	0	0	0	0	0	0	0	0.0035	20.6314	0.0000	0.0000;
	386	0	0	10	0	1.08555	26.9	0	25	12	0	0	0	0	0	0	0	0	0	0	0	0.0000	0.0000	0.0000	0.0000;
	387	10.001741	1.05694173e-05	10	0	1.06565127	19.7	1	17	10	0	0	0	0	0	0	0	0	0	0	0	0.0371	20.6360	0.0000	0.0000;
	444	1.5	1.53907838	2	0	1.05672173	3.6	1	1.5	1.5	0	0	0	0	0	0	0	0	0	0	0	0.0000	-91.3933	0.0000	0.0000;
	453	5.21	3.53327754e-06	2	0	1.06898368	6.1	1	5.21	5.21	0	0	0	0	0	0	0	0	0	0	0	0.0000	-91.7600	0.0000	0.0000;
	453	0	0	2	0	1.0809	6.1	0	0	0	0	0	0	0	0	0	0	0	0	0	0	0.0000	0.0000	0.0000	0.0000;
	486	1.4	0.699818939	0.7	0	1.04964443	1.7	1	1.4	1.4	0	0	0	0	0	0	0	0	0	0	0	0.0000	-91.4927	0.0000	0.0000;
	537	25	1.57708734e-05	14	0	1.06285393	53.9	1	25	25	0	0	0	0	0	0	0	0	0	0	0	0.0000	-91.8532	0.0000	0.0000;
	537	0	0	14	0	1.06135	34.9	0	0	0	0	0	0	0	0	0	0	0	0	0	0	0.0000	0.0000	0.0000	0.0000;
	537	0	0	14	0	1.06135	34	0	0	0	0	0	0	0	0	0	0	0	0	0	0	0.0000	0.0000	0.0000	0.0000;
	537	0	0	14	0	1.06135	105.9	0	0	0	0	0	0	0	0	0	0	0	0	0	0	0.0000	0.0000	0.0000	0.0000;
	537	0	0	14	0	1.06135	105.9	0	0	0	0	0	0	0	0	0	0	0	0	0	0	0.0000	0.0000	0.0000	0.0000;
	538	20	2.22662388e-05	17.5	0	1.06188694	36.5	1	20	20	0	0	0	0	0	0	0	0	0	0	0	0.0000	-91.8416	0.0000	0.0000;
	538	20	2.22662388e-05	17.5	0	1.06188694	35.6	1	20	20	0	0	0	0	0	0	0	0	0	0	0	0.0000	-91.8416	0.0000	0.0000;
	538	0	0	17.5	0	1.06273	126.2	0	0	0	0	0	0	0	0	0	0	0	0	0	0	0.0000	0.0000	0.0000	0.0000;
	538	0	0	17.5	0	1.06273	106.4	0	0	0	0	0	0	0	0	0	0	0	0	0	0	0.0000	0.0000	0.0000	0.0000;
	552	1.4	0.699852632	0.7	0	1.05795032	1.7	1	1.4	1.4	0	0	0	0	0	0	0	0	0	0	0	0.0000	-91.8606	0.0000	0.0000;
	560	22.5	3.23371911	10	0	1.059587	35.4	1	22.5	22.5	0	0	0	0	0	0	0	0	0	0	0	0.0000	-91.8619	0.0000	0.0000;
	560	0	0	5	0	1.05752	28.4	0	0	0	0	0	0	0	0	0	0	0	0	0	0	0.0000	0.0000	0.0000	0.0000;
	560	0	0	5	0	1.05752	26.5	0	0	0	0	0	0	0	0	0	0	0	0	0	0	0.0000	0.0000	0.0000	0.0000;
	560	0	0	5	0	1.05752	30.4	0	0	0	0	0	0	0	0	0	0	0	0	0	0	0.0000	0.0000	0.0000	0.0000;
	560	0	0	5	0	1.05752	34.4	0	0	0	0	0	0	0	0	0	0	0	0	0	0	0.0000	0.0000	0.0000	0.0000;
	561	22.5	2.44291057e-05	10	0	1.06012074	35.4	1	22.5	22.5	0	0	0	0	0	0	0	0	0	0	0	0.0000	-91.8314	0.0000	0.0000;
	561	0	0	5	0	1.0595	34.4	0	0	0	0	0	0	0	0	0	0	0	0	0	0	0.0000	0.0000	0.0000	0.0000;
	561	0	0	5	0	1.0595	26.5	0	0	0	0	0	0	0	0	0	0	0	0	0	0	0.0000	0.0000	0.0000	0.0000;
	561	0	0	5	0	1.0595	34.4	0	0	0	0	0	0	0	0	0	0	0	0	0	0	0.0000	0.0000	0.0000	0.0000;
	574	1	1.17853452	4	0	1.10456688	8.9	1	1	1	0	0	0	0	0	0	0	0	0	0	0	0.0000	-91.5759	0.0000	0.0000;
	627	76	7.7622647e-07	30	0	1.094953	97.7	1	76	76	0	0	0	0	0	0	0	0	0	0	0	0.0000	-91.3735	0.0000	0.0000;
	627	30	7.7622647e-07	30	0	1.094953	46.8	1	30	30	0	0	0	0	0	0	0	0	0	0	0	0.0000	-91.3735	0.0000	0.0000;
	665	130.00398	-33.9999973	145	-34	1.06852651	267.7	1	225	130	0	0	0	0	0	0	0	0	0	0	0	0.0026	10.4130	0.0000	0.0000;
	666	0	0	145	-34	1.09079	267.7	0	225	130	0	0	0	0	0	0	0	0	0	0	0	0.0000	0.0000	0.0000	0.0000;
	686	140	4.7278e-07	30	0	1.08809444	182.5	1	140	140	0	0	0	0	0	0	0	0	0	0	0	0.0000	-91.5220	0.0000	0.0000;
	686	47	4.7278e-07	30	0	1.08809444	77.5	1	47	47	0	0	0	0	0	0	0	0	0	0	0	0.0000	-91.5220	0.0000	0.0000;
	692	1.98	4.65600182e-07	1	0	1.08752283	2.7	1	1.98	1.98	0	0	0	0	0	0	0	0	0	0	0	0.0000	-91.5430	0.0000	0.0000;
	717	1.32	8.41371827e-07	1.3	0	1.0863945	10.1	1	1.32	1.32	0	0	0	0	0	0	0	0	0	0	0	0.0000	-91.3071	0.0000	0.0000;
	741	129.002466	-15.9999991	130	-16	1.09576822	259.9	1	225	129	0	0	0	0	0	0	0	0	0	0	0	0.0026	14.0660	0.0000	0.0000;
	764	82	1.21884181e-06	30	0	1.07628154	105.4	1	82	82	0	0	0	0	0	0	0	0	0	0	0	0.0000	-91.3276	0.0000	0.0000;
	793	1	1.21784777e-06	0.5	0	1.05362281	8.3	1	1	1	0	0	0	0	0	0	0	0	0	0	0	0.0000	-91.3326	0.0000	0.0000;
	797	0	0	23	0	1.0493	71.9	0	0	0	0	0	0	0	0	0	0	0	0	0	0	0.0000	0.0000	0.0000	0.0000;
	797	0	0	23	0	1.0493	71.9	0	0	0	0	0	0	0	0	0	0	0	0	0	0	0.0000	0.0000	0.0000	0.0000;
	797	0	0	11	0	1.0493	32.9	0	0	0	0	0	0	0	0	0	0	0	0	0	0	0.0000	0.0000	0.0000	0.0000;
	797	0	0	10	0	1.0493	32.6	0	0	0	0	0	0	0	0	0	0	0	0	0	0	0.0000	0.0000	0.0000	0.0000;
	808	0	0	10	0	1.07568	125.4	0	125	84	0	0	0	0	0	0	0	0	0	0	0	0.0000	0.0000	0.0000	0.0000;
	809	92.0015824	7.26110851e-07	10	0	1.09300148	125.4	1	125	92	0	0	0	0	0	0	0	0	0	0	0	0.0075	20.2403	0.0000	0.0000;
	846	14.996	1.70665707e-06	8.1	0	1.08018545	33	1	14.996	14.996	0	0	0	0	0	0	0	0	0	0	0	0.0000	-91.2140	0.0000	0.0000;
	846	14.996	1.70665707e-06	8.1	0	1.08018545	33	1	14.996	14.996	0	0	0	0	0	0	0	0	0	0	0	0.0000	-91.2140	0.0000	0.0000;
	846	0	0	0	0	1.07424	19	0	0	0	0	0	0	0	0	0	0	0	0	0	0	0.0000	0.0000	0.0000	0.0000;
	846	0	0	0	0	1.07424	19	0	0	0	0	0	0	0	0	0	0	0	0	0	0	0.0000	0.0000	0.0000	0.0000;
	878	34.99	5.32628869	41.2	0	1.10637529	87.7	1	34.99	34.99	0	0	0	0	0	0	0	0	0	0	0	0.0000	-90.9294	0.0000	0.0000;
	901	0	0	45	-10	1.07665	65.8	0	0	0	0	0	0	0	0	0	0	0	0	0	0	0.0000	0.0000	0.0000	0.0000;
	901	44.988	-8.09293412	45	-10	1.09997578	71.1	1	44.988	44.988	0	0	0	0	0	0	0	0	0	0	0	0.0000	-90.4616	0.0000	0.0000;
	901	0	0	45	-10	1.07665	71.1	0	0	0	0	0	0	0	0	0	0	0	0	0	0	0.0000	0.0000	0.0000	0.0000;
	976	0	0	110	-40	1.08472	162.2	0	0	0	0	0	0	0	0	0	0	0	0	0	0	0.0000	0.0000	0.0000	0.0000;
	977	99.973	8.06083438	110	-40	1.11415736	162.2	1	99.973	99.973	0	0	0	0	0	0	0	0	0	0	0	0.0000	-90.8078	0.0000	0.0000;
	981	0	0	0	0	1.08908	16.8	0	0	0	0	0	0	0	0	0	0	0	0	0	0	0.0000	0.0000	0.0000	0.0000;
	1002	262.585665	-31.9999847	240	-32	1.10955592	454.5	1	386	220	0	0	0	0	0	0	0	0	0	0	0	0.0028	0.0078	0.0000	0.0000;
	1003	0	0	227	-30	1.08396	434.1	0	370	220	0	0	0	0	0	0	0	0	0	0	0	0.0000	0.0000	0.0000	0.0000;
	1007	5.998	1.44698017	1.447	0	1.11384592	7.1	1	5.998	5.998	0	0	0	0	0	0	0	0	0	0	0	0.0000	-90.7366	0.0000	0.0000;
	1006	3.999	0.446978664	0.447	0	1.11385844	4	1	3.999	3.999	0	0	0	0	0	0	0	0	0	0	0	0.0000	-90.7364	0.0000	0.0000;
	1007	3.999	0.446978541	0.447	0	1.11384592	5	1	3.999	3.999	0	0	0	0	0	0	0	0	0	0	0	0.0000	-90.7366	0.0000	0.0000;
	1007	0	0	0	0	1.08685	6	0	0	0	0	0	0	0	0	0	0	0	0	0	0	0.0000	0.0000	0.0000	0.0000;
	1008	0	0	110	-40	1.08742	174.1	0	0	0	0	0	0	0	0	0	0	0	0	0	0	0.0000	0.0000	0.0000	0.0000;
	1014	14.996	7.26287183e-05	4.8	0	1.10193539	20.6	1	14.996	14.996	0	0	0	0	0	0	0	0	0	0	0	0.0000	-90.9235	0.0000	0.0000;
	1014	0	0	0	0	1.08325	12.8	0	0	0	0	0	0	0	0	0	0	0	0	0	0	0.0000	0.0000	0.0000	0.0000;
	1014	0	0	0	0	1.08325	12.5	0	0	0	0	0	0	0	0	0	0	0	0	0	0	0.0000	0.0000	0.0000	0.0000;
	1016	0	0	0	0	1.08029	20	0	0	0	0	0	0	0	0	0	0	0	0	0	0	0.0000	0.0000	0.0000	0.0000;
	1016	0	0	0	0	1.08029	19	0	0	0	0	0	0	0	0	0	0	0	0	0	0	0.0000	0.0000	0.0000	0.0000;
	1025	11.997	17.9998925	18	9	1.09336157	30	1	11.997	11.997	0	0	0	0	0	0	0	0	0	0	0	0.0000	-90.8686	0.0000	0.0000;
	1026	0	0	18	9	1.07151	30	0	0	0	0	0	0	0	0	0	0	0	0	0	0	0.0000	0.0000	0.0000	0.0000;
	1027	0	0	14	10.5	1.07147	32.2	0	0	0	0	0	0	0	0	0	0	0	0	0	0	0.0000	0.0000	0.0000	0.0000;
	1114	0	0	37.5	16.8	1.08691	62.5	0	0	0	0	0	0	0	0	0	0	0	0	0	0	0.0000	0.0000	0.0000	0.0000;
	1115	0	0	37.5	7.5	1.0759	62.5	0	0	0	0	0	0	0	0	0	0	0	0	0	0	0.0000	0.0000	0.0000	0.0000;
	1114	39.989	7.50021639	37.5	7.5	1.11072907	62.5	1	39.989	39.989	0	0	0	0	0	0	0	0	0	0	0	0.0000	-90.7845	0.0000	0.0000;
	1116	0	0	37.5	16.8	1.08062	62.5	0	0	0	0	0	0	0	0	0	0	0	0	0	0	0.0000	0.0000	0.0000	0.0000;
	1153	16.995	0.000360075313	5.251	0	1.08844879	30.5	1	16.995	16.995	0	0	0	0	0	0	0	0	0	0	0	0.0000	-90.9946	0.0000	0.0000;
	1153	0	0	0	0	1.07018	6	0	0	0	0	0	0	0	0	0	0	0	0	0	0	0.0000	0.0000	0.0000	0.0000;
	1154	16.995	0.000289507208	5.251	0	1.08854842	30.5	1	16.995	16.995	0	0	0	0	0	0	0	0	0	0	0	0.0000	-90.9945	0.0000	0.0000;
	1154	0	0	0	0	1.07027	25	0	0	0	0	0	0	0	0	0	0	0	0	0	0	0.0000	0.0000	0.0000	0.0000;
	1155	15.996	1.16278309e-05	5.25	0	1.09105347	30.5	1	15.996	15.996	0	0	0	0	0	0	0	0	0	0	0	0.0000	-90.8150	0.0000	0.0000;
	1155	0	0	0	0	1.07285	6	0	0	0	0	0	0	0	0	0	0	0	0	0	0	0.0000	0.0000	0.0000	0.0000;
	1180	59.984	15.5871467	52.5	0	1.1051074	87.5	1	59.984	59.984	0	0	0	0	0	0	0	0	0	0	0	0.0000	-90.9293	0.0000	0.0000;
	1181	0	0	52.5	0	1.08122	87.5	0	0	0	0	0	0	0	0	0	0	0	0	0	0	0.0000	0.0000	0.0000	0.0000;
	1181	0	0	42	16.8	1.08122	65.3	0	0	0	0	0	0	0	0	0	0	0	0	0	0	0.0000	0.0000	0.0000	0.0000;
	1189	49.986	0	0	0	1.10445182	50	1	49.986	49.986	0	0	0	0	0	0	0	0	0	0	0	0.0000	-90.9330	0.0000	0.0000;
	1247	9.997	0.898209409	2	0	1.09719699	16.7	1	9.997	9.997	0	0	0	0	0	0	0	0	0	0	0	0.0000	-90.2532	0.0000	0.0000;
	1247	0	0	0	0	1.07484	24	0	0	0	0	0	0	0	0	0	0	0	0	0	0	0.0000	0.0000	0.0000	0.0000;
	1248	0	0	0	0	1.07711	14.6	0	0	0	0	0	0	0	0	0	0	0	0	0	0	0.0000	0.0000	0.0000	0.0000;
	1248	0	0	0	0	1.07711	14.6	0	0	0	0	0	0	0	0	0	0	0	0	0	0	0.0000	0.0000	0.0000	0.0000;
...
];

%% branch data
%	fbus	tbus	r	x	b	rateA	rateB	rateC	ratio	angle	status	angmin	angmax	Pf	Qf	Pt	Qt	mu_Sf	mu_St	mu_angmin	mu_angmax
mpc.branch = [
	7	8	0.00064	0.0305	0	400	400	400	1.0435	-0.6	1	-360	360	-234.1428	0.0000	234.1428	0.0000	0.0003	0.0012	0.0000	0.0000;
	26	28	0.00036	0.02519	0	500	500	500	1.0911	0	1	-360	360	146.1607	0.0000	-146.1607	0.0000	0.0007	0.0004	0.0000	0.0000;
	27	29	0.00036	0.02519	0	500	500	500	1.0759	0	1	-360	360	37.5927	0.0000	-37.5927	0.0000	0.0005	0.0004	0.0000	0.0000;
	39	41	0.00034	0.02097	0	500	500	500	1.0793	0	1	-360	360	-16.5182	0.0000	16.5182	0.0000	0.0005	0.0005	0.0000	0.0000;
	42	45	0.00034	0.02097	0	500	500	500	1.0296	0	1	-360	360	14.4929	0.0000	-14.4929	0.0000	0.0005	0.0005	0.0000	0.0000;
	54	56	0.00081	0.03	0	400	400	400	1.0501	0	1	-360	360	23.7907	0.0000	-23.7907	0.0000	0.0007	0.0006	0.0000	0.0000;
	63	65	0.00015	0.01071	0	1250	1250	1250	0.9673	0	1	-360	360	0.0061	0.0000	-0.0061	0.0000	0.0002	0.0002	0.0000	0.0000;
	64	65	0.00015	0.01071	0	1250	1250	1250	0.9665	0	0	-360	360	0.0000	0.0000	0.0000	0.0000	0.0000	0.0000	0.0000	0.0000;
	90	92	0.00075	0.02444	-0.00832	330	330	330	1.0474	0	1	-360	360	-99.8643	0.0000	99.8643	0.0000	0.0006	0.0010	0.0000	0.0000;
	91	93	0.00075	0.02469	-0.008	330	330	330	1.0445	0	1	-360	360	-99.3546	0.0000	99.3546	0.0000	0.0006	0.0010	0.0000	0.0000;
	125	128	0.0005	0.02875	-0.016	400	400	400	1.1172	0	1	-360	360	-192.6467	0.0000	192.6467	0.0000	0.0005	0.0008	0.0000	0.0000;
	149	150	0.00064	0.0305	0	400	400	400	1.077	0	1	-360	360	208.4079	0.0000	-208.4079	0.0000	0.0011	0.0004	0.0000	0.0000;
	155	157	0.000232	0.023	0	500	500	500	1.0887	0	1	-360	360	-104.7226	0.0000	104.7226	0.0000	0.0004	0.0007	0.0000	0.0000;
	156	158	0.000232	0.023	0	500	500	500	1.0887	0	1	-360	360	-104.6729	0.0000	104.6729	0.0000	0.0004	0.0007	0.0000	0.0000;
	169	171	0.00035	0.02375	0	500	500	500	1.0894	0	1	-360	360	125.9827	0.0000	-125.9827	0.0000	0.0006	0.0004	0.0000	0.0000;
	183	184	0.00059	0.030919	0	400	400	400	1.0584	0	1	-360	360	-27.8893	0.0000	27.8893	0.0000	0.0006	0.0006	0.0000	0.0000;
	190	192	0.0004	0.03	0	500	500	500	1.0855	3.6	1	-360	360	-195.9783	0.0000	195.9783	0.0000	0.0004	0.0006	0.0000	0.0000;
	2727	157	0.00031	0.00338	0.0992	1386	1386	1386	0	0	1	-360	360	87.7617	0.0000	-87.7617	0.0000	0.0002	0.0002	0.0000	0.0000;
	2727	158	0.00031	0.00338	0.0992	1386	1386	1386	0	0	1	-360	360	86.0145	0.0000	-86.0145	0.0000	0.0002	0.0002	0.0000	0.0000;
	2728	68	0.014341	0.083531	0.126034	385	385	385	0	0	1	-360	360	79.9799	0.0000	-79.9799	0.0000	0.0008	0.0005	0.0000	0.0000;
	2726	76	0.01219	0.070659	0.117418	412	412	412	0	0	1	-360	360	-32.9797	0.0000	32.9797	0.0000	0.0005	0.0007	0.0000	0.0000;
	2726	105	0.011781	0.07087	0.116838	412	412	412	0	0	1	-360	360	-150.5480	0.0000	150.5480	0.0000	0.0004	0.0009	0.0000	0.0000;
	127	2725	0.001525	0.016837	0.50576	1386	1386	1386	0	0	1	-360	360	288.5185	0.0000	-288.5185	0.0000	0.0002	0.0001	0.0000	0.0000;
	2729	148	0.001651	0.015909	0.046948	316	316	316	0	0	1	-360	360	91.2966	0.0000	-91.2966	0.0000	0.0011	0.0006	0.0000	0.0000;
	2729	149	0.001651	0.015909	0.046948	316	316	316	0	0	1	-360	360	92.1921	0.0000	-92.1921	0.0000	0.0011	0.0006	0.0000	0.0000;
	2730	47	0.00188	0.02287	0.6432	831	831	831	0	0	1	-360	360	-117.7493	0.0000	117.7493	0.0000	0.0003	0.0003	0.0000	0.0000;
	2730	48	0.00188	0.02287	0.6432	831	831	831	0	0	1	-360	360	-117.3271	0.0000	117.3271	0.0000	0.0003	0.0003	0.0000	0.0000;
	82	2724	0.002769	0.031162	0.89824	1386	1386	1386	0	0	1	-360	360	188.5306	0.0000	-188.5306	0.0000	0.0002	0.0002	0.0000	0.0000;
	42	23	0.01345	0.081141	0.141134	339	339	339	0	0	1	-360	360	106.9410	0.0000	-106.9410	0.0000	0.0010	0.0006	0.0000	0.0000;
	26	90	0.009091	0.062401	0.111417	453	453	453	0	0	1	-360	360	153.2633	0.0000	-153.2633	0.0000	0.0008	0.0004	0.0000	0.0000;
	27	91	0.00868	0.06405	0.096994	427	427	427	0	0	1	-360	360	102.8905	0.0000	-102.8905	0.0000	0.0008	0.0005	0.0000	0.0000;
	146	30	0.016961	0.123659	0.196988	316	316	316	0	0	1	-360	360	16.5543	0.0000	-16.5543	0.0000	0.0009	0.0007	0.0000	0.0000;
	135	33	0.00512	0.02618	0.029621	301	301	301	0	0	1	-360	360	-74.6668	0.0000	74.6668	0.0000	0.0007	0.0010	0.0000	0.0000;
	134	20	0.01068	0.061961	0.094961	385	385	385	0	0	1	-360	360	-163.8600	0.0000	163.8600	0.0000	0.0005	0.0008	0.0000	0.0000;
	164	21	0.014651	0.105891	0.170852	316	316	316	0	0	1	-360	360	13.1502	0.0000	-13.1502	0.0000	0.0010	0.0006	0.0000	0.0000;
	40	109	0.01488	0.08161	0.114805	314	314	314	0	0	1	-360	360	-6.5474	0.0000	6.5474	0.0000	0.0008	0.0008	0.0000	0.0000;
	39	91	0.011159	0.07231	0.103673	324	324	324	0	0	1	-360	360	-64.2519	0.0000	64.2519	0.0000	0.0006	0.0010	0.0000	0.0000;
	178	83	0.005517	0.059484	0.170775	316	316	316	0	0	1	-360	360	-18.7826	0.0000	18.7826	0.0000	0.0007	0.0008	0.0000	0.0000;
	203	165	0.01176	0.068289	0.102802	324	324	324	0	0	1	-360	360	-180.5132	0.0000	180.5132	0.0000	0.0005	0.0016	0.0000	0.0000;
	194	165	0.016818	0.089091	0.129935	358	358	358	0	0	1	-360	360	-116.1433	0.0000	116.1433	0.0000	0.0005	0.0012	0.0000	0.0000;
	193	164	0.013843	0.087025	0.134842	383	383	383	0	0	1	-360	360	-119.4972	0.0000	119.4972	0.0000	0.0005	0.0011	0.0000	0.0000;
	207	167	0.01676	0.097169	0.148685	269	269	269	0	0	1	-360	360	-60.4589	0.0000	60.4589	0.0000	0.0007	0.0013	0.0000	0.0000;
	42	10	0.01269	0.074979	0.130196	351	351	351	0	0	1	-360	360	115.4239	0.0000	-115.4239	0.0000	0.0009	0.0006	0.0000	0.0000;
	198	18	0.014091	0.10413	0.15972	316	316	316	0	0	1	-360	360	-82.7776	0.0000	82.7776	0.0000	0.0007	0.0010	0.0000	0.0000;
	100	54	0.003719	0.0438	0.100962	457	457	457	0	0	1	-360	360	-45.7836	0.0000	45.7836	0.0000	0.0005	0.0006	0.0000	0.0000;
	162	82	0.00194	0.02056	0.51584	1178	1178	1178	0	0	1	-360	360	-116.3439	0.0000	116.3439	0.0000	0.0002	0.0002	0.0000	0.0000;
	44	9	0.0015	0.01506	0.4032	1386	1386	1386	0	0	1	-360	360	244.0394	0.0000	-244.0394	0.0000	0.0002	0.0002	0.0000	0.0000;
	185	150	0.00294	0.03463	0.9216	693	693	693	0	0	1	-360	360	-283.4404	0.0000	283.4404	0.0000	0.0002	0.0006	0.0000	0.0000;
	121	56	0.00169	0.01994	0.50624	831	831	831	0	0	1	-360	360	-38.9478	0.0000	38.9478	0.0000	0.0003	0.0003	0.0000	0.0000;
	29	93	0.00137	0.01625	0.41184	1386	1386	1386	0	0	1	-360	360	185.1737	0.0000	-185.1737	0.0000	0.0002	0.0002	0.0000	0.0000;
	28	123	0.00231	0.02769	0.70144	1386	1386	1386	0	0	1	-360	360	250.2887	0.0000	-250.2887	0.0000	0.0002	0.0001	0.0000	0.0000;
	25	192	0.00207	0.02474	0.664	1386	1386	1386	0	0	1	-360	360	564.5194	0.0000	-564.5194	0.0000	0.0003	0.0001	0.0000	0.0000;
	120	63	0.0015	0.01788	0.4512	831	831	831	0	0	1	-360	360	78.2999	0.0000	-78.2999	0.0000	0.0003	0.0003	0.0000	0.0000;
	122	63	0.00469	0.05544	1.4048	831	831	831	0	0	0	-360	360	0.0000	0.0000	0.0000	0.0000	0.0000	0.0000	0.0000	0.0000;
	82	31	0.00331	0.03425	0.85888	977	977	977	0	0	1	-360	360	-85.4672	0.0000	85.4672	0.0000	0.0002	0.0003	0.0000	0.0000;
	92	28	0.00219	0.02369	0.59584	1178	1178	1178	0	0	1	-360	360	-126.2226	0.0000	126.2226	0.0000	0.0002	0.0002	0.0000	0.0000;
	12	4	0.01674	0.09711	0.144232	427	427	427	0	0	1	-360	360	-146.4714	0.0000	146.4714	0.0000	0.0004	0.0008	0.0000	0.0000;
	30	11	0.0057	0.0407	0.06021	316	316	316	0	0	1	-360	360	-14.6677	0.0000	14.6677	0.0000	0.0008	0.0008	0.0000	0.0000;
	24	4	0.004419	0.032229	0.049852	383	383	383	0	0	1	-360	360	62.3067	0.0000	-62.3067	0.0000	0.0007	0.0006	0.0000	0.0000;
	17	7	0.014591	0.11219	0.165528	383	383	383	0	0	1	-360	360	-48.2113	0.0000	48.2113	0.0000	0.0006	0.0007	0.0000	0.0000;
	21	10	0.01211	0.087419	0.140166	316	316	316	0	0	1	-360	360	-1.6946	0.0000	1.6946	0.0000	0.0008	0.0008	0.0000	0.0000;
	26	5	0.009773	0.050516	0.088959	377	377	377	0	0	1	-360	360	153.0258	0.0000	-153.0258	0.0000	0.0011	0.0005	0.0000	0.0000;
	17	3	0.01068	0.07895	0.245194	274	274	274	0	0	1	-360	360	50.0439	0.0000	-50.0439	0.0000	0.0011	0.0008	0.0000	0.0000;
	26	19	0.0057	0.039521	0.075533	440	440	440	0	0	1	-360	360	167.0272	0.0000	-167.0272	0.0000	0.0009	0.0004	0.0000	0.0000;
	27	20	0.0057	0.039521	0.075533	440	440	440	0	0	1	-360	360	91.8648	0.0000	-91.8648	0.0000	0.0007	0.0005	0.0000	0.0000;
	13	6	0.00525	0.03988	0.061952	316	316	316	0	0	1	-360	360	95.8652	0.0000	-95.8652	0.0000	0.0011	0.0006	0.0000	0.0000;
	13	12	2.1e-05	0.000207	0	316	316	316	0	0	1	-360	360	-143.4799	0.0000	143.4799	0.0000	0.0005	0.0014	0.0000	0.0000;
	32	13	0.00093	0.00651	0.011132	316	316	316	0	0	1	-360	360	-50.4430	0.0000	50.4430	0.0000	0.0007	0.0009	0.0000	0.0000;
	23	11	0.00205	0.01326	0.022429	385	385	385	0	0	1	-360	360	-0.9948	0.0000	0.9948	0.0000	0.0006	0.0006	0.0000	0.0000;
	33	5	0.007831	0.043	0.04962	301	301	301	0	0	1	-360	360	-78.3533	0.0000	78.3533	0.0000	0.0007	0.0010	0.0000	0.0000;
	19	4	0.00293	0.01599	0.024781	324	324	324	0	0	1	-360	360	70.8477	0.0000	-70.8477	0.0000	0.0010	0.0006	0.0000	0.0000;
	26	1	0.00155	0.01169	0.018198	633	633	633	0	0	1	-360	360	47.2734	0.0000	-47.2734	0.0000	0.0004	0.0003	0.0000	0.0000;
	27	2	0.00155	0.01169	0.018198	633	633	633	0	0	1	-360	360	10.6495	0.0000	-10.6495	0.0000	0.0004	0.0004	0.0000	0.0000;
	27	24	0.003841	0.028531	0.045883	392	392	392	0	0	1	-360	360	96.1666	0.0000	-96.1666	0.0000	0.0008	0.0005	0.0000	0.0000;
	25	9	0.00298	0.03418	0.93504	831	831	831	0	0	1	-360	360	-176.8886	0.0000	176.8886	0.0000	0.0003	0.0004	0.0000	0.0000;
	28	25	0.00358	0.04262	1.0944	1386	1386	1386	0	0	1	-360	360	453.3296	0.0000	-453.3296	0.0000	0.0003	0.0001	0.0000	0.0000;
	14	29	0.00336	0.03977	1.02163	1316	1316	1316	0	0	1	-360	360	-300.7046	0.0000	300.7046	0.0000	0.0002	0.0002	0.0000	0.0000;
	8	15	0.00299	0.03675	0.9184	1150	1150	1150	0	0	1	-360	360	62.9447	0.0000	-62.9447	0.0000	0.0002	0.0002	0.0000	0.0000;
	8	14	0.00112	0.01329	0.341248	1150	1150	1150	0	0	1	-360	360	-99.9947	0.0000	99.9947	0.0000	0.0002	0.0002	0.0000	0.0000;
	31	29	0.00075	0.009	0.22848	1150	1150	1150	0	0	1	-360	360	-1480.9281	0.0000	1480.9281	0.0000	0.0002	0.0003	0.0000	0.0000;
	62	58	0.010479	0.060969	0.092047	269	269	269	0	0	1	-360	360	-14.3269	0.0000	14.3269	0.0000	0.0009	0.0009	0.0000	0.0000;
	60	55	0.00882	0.065641	0.100662	274	274	274	0	0	1	-360	360	-22.6234	0.0000	22.6234	0.0000	0.0008	0.0010	0.0000	0.0000;
	67	34	0.011219	0.065581	0.098349	274	274	274	0	0	1	-360	360	-30.2203	0.0000	30.2203	0.0000	0.0008	0.0010	0.0000	0.0000;
	50	34	0.01163	0.07031	0.105802	341	341	341	0	0	1	-360	360	34.8393	0.0000	-34.8393	0.0000	0.0008	0.0007	0.0000	0.0000;
	58	42	0.00545	0.040211	0.066986	404	404	404	0	0	1	-360	360	-1.4383	0.0000	1.4383	0.0000	0.0006	0.0006	0.0000	0.0000;
	59	43	0.00545	0.040211	0.066986	404	404	404	0	0	1	-360	360	-1.6891	0.0000	1.6891	0.0000	0.0006	0.0006	0.0000	0.0000;
	59	34	0.00837	0.04868	0.073481	379	379	379	0	0	1	-360	360	-37.5633	0.0000	37.5633	0.0000	0.0006	0.0007	0.0000	0.0000;
	68	51	0.003159	0.02076	0.03146	385	385	385	0	0	1	-360	360	41.4578	0.0000	-41.4578	0.0000	0.0007	0.0006	0.0000	0.0000;
	51	38	0.006979	0.051961	0.079666	316	316	316	0	0	1	-360	360	21.5120	0.0000	-21.5120	0.0000	0.0008	0.0007	0.0000	0.0000;
	36	55	0.00374	0.027831	0.042689	274	274	274	0	0	1	-360	360	-6.1582	0.0000	6.1582	0.0000	0.0008	0.0010	0.0000	0.0000;
	37	35	0.00769	0.057271	0.087894	316	316	316	0	0	1	-360	360	18.3062	0.0000	-18.3062	0.0000	0.0008	0.0007	0.0000	0.0000;
	54	37	0.00556	0.04145	0.063598	383	383	383	0	0	1	-360	360	6.6341	0.0000	-6.6341	0.0000	0.0007	0.0006	0.0000	0.0000;
	67	36	0.004521	0.03368	0.051691	392	392	392	0	0	1	-360	360	8.4259	0.0000	-8.4259	0.0000	0.0006	0.0006	0.0000	0.0000;
	67	66	0.00151	0.008781	0.013165	341	341	341	0	0	1	-360	360	21.7872	0.0000	-21.7872	0.0000	0.0008	0.0007	0.0000	0.0000;
	61	42	0.00574	0.042831	0.065727	404	404	404	0	0	1	-360	360	-21.7749	0.0000	21.7749	0.0000	0.0006	0.0006	0.0000	0.0000;
	62	43	0.00707	0.045409	0.069309	314	314	314	0	0	1	-360	360	-20.9283	0.0000	20.9283	0.0000	0.0007	0.0008	0.0000	0.0000;
	61	39	0.01213	0.062151	0.093712	314	314	314	0	0	1	-360	360	-0.2296	0.0000	0.2296	0.0000	0.0008	0.0008	0.0000	0.0000;
	60	40	0.002479	0.017979	0.027588	316	316	316	0	0	1	-360	360	-48.5464	0.0000	48.5464	0.0000	0.0007	0.0009	0.0000	0.0000;
	46	39	0.002401	0.01494	0.022525	341	341	341	0	0	1	-360	360	-42.0148	0.0000	42.0148	0.0000	0.0006	0.0008	0.0000	0.0000;
	49	45	0.00167	0.0189	0.54176	1150	1150	1150	0	0	1	-360	360	40.4039	0.0000	-40.4039	0.0000	0.0002	0.0002	0.0000	0.0000;
	57	53	0.00109	0.01277	0.34176	1150	1150	1150	0	0	1	-360	360	70.4935	0.0000	-70.4935	0.0000	0.0002	0.0002	0.0000	0.0000;
	41	57	0.002259	0.026439	0.70784	1150	1150	1150	0	0	1	-360	360	-4.3841	0.0000	4.3841	0.0000	0.0002	0.0002	0.0000	0.0000;
	63	57	0.00094	0.01097	0.29376	1393	1393	1393	0	0	1	-360	360	-198.6235	0.0000	198.6235	0.0000	0.0002	0.0002	0.0000	0.0000;
	47	64	0.00113	0.01406	0.37488	1386	1386	1386	0	0	1	-360	360	-298.6873	0.0000	298.6873	0.0000	0.0001	0.0002	0.0000	0.0000;
	52	44	0.00176	0.02144	0.57344	1150	1150	1150	0	0	1	-360	360	-47.2674	0.0000	47.2674	0.0000	0.0002	0.0002	0.0000	0.0000;
	96	125	0.004876	0.033616	0.059609	404	404	404	0	0	1	-360	360	-188.5017	0.0000	188.5017	0.0000	0.0007	0.0006	0.0000	0.0000;
	75	106	0.01093	0.059194	0.08439	246	246	246	0	0	1	-360	360	35.9249	0.0000	-35.9249	0.0000	0.0010	0.0010	0.0000	0.0000;
	106	94	0.001942	0.013926	0.022845	404	404	404	0	0	1	-360	360	87.2660	0.0000	-87.2660	0.0000	0.0008	0.0005	0.0000	0.0000;
	79	85	0.004318	0.029752	0.05264	316	316	316	0	0	1	-360	360	0.2235	0.0000	-0.2235	0.0000	0.0008	0.0008	0.0000	0.0000;
	131	130	0.000661	0.004959	0.007579	379	379	379	0	0	1	-360	360	34.6135	0.0000	-34.6135	0.0000	0.0007	0.0006	0.0000	0.0000;
	107	131	0.005372	0.040393	0.060055	379	379	379	0	0	1	-360	360	-188.6506	0.0000	188.6506	0.0000	0.0005	0.0009	0.0000	0.0000;
	91	131	0.000826	0.005248	0.008683	301	301	301	0	0	1	-360	360	141.9734	0.0000	-141.9734	0.0000	0.0015	0.0006	0.0000	0.0000;
	100	119	0.015888	0.087603	0.116818	314	314	314	0	0	1	-360	360	59.9777	0.0000	-59.9777	0.0000	0.0011	0.0007	0.0000	0.0000;
	81	113	0.002169	0.014587	0.025749	269	269	269	0	0	1	-360	360	8.4552	0.0000	-8.4552	0.0000	0.0009	0.0009	0.0000	0.0000;
	116	101	0.017727	0.116777	0.163611	246	246	246	0	0	1	-360	360	-19.8496	0.0000	19.8496	0.0000	0.0009	0.0011	0.0000	0.0000;
	126	74	0.00593	0.04093	0.072145	404	404	404	0	0	1	-360	360	-32.4691	0.0000	32.4691	0.0000	0.0006	0.0006	0.0000	0.0000;
	108	90	0.003905	0.028471	0.044983	383	383	383	0	0	1	-360	360	-144.4534	0.0000	144.4534	0.0000	0.0005	0.0011	0.0000	0.0000;
	118	79	0.008161	0.042417	0.061197	356	356	356	0	0	1	-360	360	-0.7032	0.0000	0.7032	0.0000	0.0007	0.0007	0.0000	0.0000;
	119	78	0.008161	0.042417	0.061197	356	356	356	0	0	1	-360	360	-57.1906	0.0000	57.1906	0.0000	0.0006	0.0009	0.0000	0.0000;
	79	76	0.005186	0.038388	0.058748	453	453	453	0	0	1	-360	360	216.9355	0.0000	-216.9355	0.0000	0.0010	0.0004	0.0000	0.0000;
	78	73	0.002128	0.014029	0.022603	301	301	301	0	0	1	-360	360	49.1972	0.0000	-49.1972	0.0000	0.0006	0.0007	0.0000	0.0000;
	114	78	0.004628	0.027748	0.046115	324	324	324	0	0	1	-360	360	-87.7748	0.0000	87.7748	0.0000	0.0006	0.0010	0.0000	0.0000;
	103	72	0.011219	0.070744	0.115705	246	246	246	0	0	1	-360	360	-126.9920	0.0000	126.9920	0.0000	0.0006	0.0020	0.0000	0.0000;
	110	117	0.006012	0.041467	0.073636	383	383	383	0	0	1	-360	360	-55.4323	0.0000	55.4323	0.0000	0.0005	0.0008	0.0000	0.0000;
	91	69	0.002066	0.012789	0.020551	269	269	269	0	0	1	-360	360	955.0269	0.0000	-955.0269	0.0000	0.0011	0.0008	0.0000	0.0000;
	86	90	0.001364	0.009731	0.016243	453	453	453	0	0	1	-360	360	-74.6132	0.0000	74.6132	0.0000	0.0005	0.0006	0.0000	0.0000;
	129	87	0.000579	0.004112	0.007008	404	404	404	0	0	1	-360	360	-44.2938	0.0000	44.2938	0.0000	0.0005	0.0007	0.0000	0.0000;
	132	76	0.000847	0.00624	0.009544	457	457	457	0	0	1	-360	360	-136.7620	0.0000	136.7620	0.0000	0.0004	0.0008	0.0000	0.0000;
	133	77	0.000847	0.00626	0.009477	457	457	457	0	0	1	-360	360	-137.2178	0.0000	137.2178	0.0000	0.0004	0.0008	0.0000	0.0000;
	102	77	0.001591	0.011116	0.019128	453	453	453	0	0	1	-360	360	91.2607	0.0000	-91.2607	0.0000	0.0007	0.0004	0.0000	0.0000;
	125	104	0.003141	0.021591	0.038391	404	404	404	0	0	1	-360	360	129.2854	0.0000	-129.2854	0.0000	0.0008	0.0005	0.0000	0.0000;
	126	111	0.004545	0.03157	0.055312	316	316	316	0	0	1	-360	360	82.4647	0.0000	-82.4647	0.0000	0.0011	0.0006	0.0000	0.0000;
	104	84	0.001446	0.009917	0.017598	316	316	316	0	0	1	-360	360	6.4205	0.0000	-6.4205	0.0000	0.0008	0.0008	0.0000	0.0000;
	105	95	0.003822	0.026674	0.046154	316	316	316	0	0	1	-360	360	-38.7203	0.0000	38.7203	0.0000	0.0007	0.0009	0.0000	0.0000;
	112	80	0.007769	0.041281	0.063907	269	269	269	0	0	1	-360	360	9.2297	0.0000	-9.2297	0.0000	0.0009	0.0009	0.0000	0.0000;
	89	78	0.004463	0.030413	0.048671	246	246	246	0	0	1	-360	360	-27.9039	0.0000	27.9039	0.0000	0.0010	0.0011	0.0000	0.0000;
	117	108	0.005888	0.035062	0.052349	246	246	246	0	0	1	-360	360	-143.9506	0.0000	143.9506	0.0000	0.0009	0.0011	0.0000	0.0000;
	109	99	0.003161	0.023409	0.036165	316	316	316	0	0	1	-360	360	51.6232	0.0000	-51.6232	0.0000	0.0009	0.0007	0.0000	0.0000;
	116	79	0.001839	0.012603	0.022399	316	316	316	0	0	1	-360	360	230.7360	0.0000	-230.7360	0.0000	0.0010	0.0006	0.0000	0.0000;
	107	88	0.001715	0.009607	0.014239	301	301	301	0	0	1	-360	360	74.4406	0.0000	-74.4406	0.0000	0.0010	0.0007	0.0000	0.0000;
	98	79	0.003409	0.024421	0.039969	246	246	246	0	0	1	-360	360	217.3758	0.0000	-217.3758	0.0000	0.0011	0.0009	0.0000	0.0000;
	117	78	0.001839	0.012603	0.02239	316	316	316	0	0	1	-360	360	-72.7749	0.0000	72.7749	0.0000	0.0006	0.0010	0.0000	0.0000;
	83	97	0.005702	0.041488	0.066172	404	404	404	0	0	1	-360	360	2.3111	0.0000	-2.3111	0.0000	0.0006	0.0006	0.0000	0.0000;
	124	118	0.004587	0.024628	0.036165	314	314	314	0	0	1	-360	360	-36.9783	0.0000	36.9783	0.0000	0.0007	0.0009	0.0000	0.0000;
	124	110	0.002149	0.013327	0.022109	246	246	246	0	0	1	-360	360	-10.1038	0.0000	10.1038	0.0000	0.0009	0.0010	0.0000	0.0000;
	100	71	0.000785	0.004876	0.00726	269	269	269	0	0	1	-360	360	0.0562	0.0000	-0.0562	0.0000	0.0009	0.0009	0.0000	0.0000;
	101	70	0.000785	0.004876	0.007241	269	269	269	0	0	1	-360	360	0.0351	0.0000	-0.0351	0.0000	0.0009	0.0009	0.0000	0.0000;
	93	127	0.002413	0.027544	0.767968	831	831	831	0	0	1	-360	360	151.1221	0.0000	-151.1221	0.0000	0.0004	0.0002	0.0000	0.0000;
	82	127	0.002131	0.024319	0.67744	1386	1386	1386	0	0	1	-360	360	-373.5361	0.0000	373.5361	0.0000	0.0002	0.0002	0.0000	0.0000;
	122	115	0.000913	0.0104	0.289888	1150	1150	1150	0	0	1	-360	360	96.7236	0.0000	-96.7236	0.0000	0.0002	0.0002	0.0000	0.0000;
	123	121	0.003119	0.035631	0.991072	831	831	831	0	0	1	-360	360	99.6673	0.0000	-99.6673	0.0000	0.0003	0.0003	0.0000	0.0000;
	115	128	0.000919	0.010512	0.292928	1150	1150	1150	0	0	1	-360	360	-74.4744	0.0000	74.4744	0.0000	0.0002	0.0002	0.0000	0.0000;
	173	156	0.01545	0.073349	0.126614	427	427	427	0	0	1	-360	360	-35.7557	0.0000	35.7557	0.0000	0.0006	0.0007	0.0000	0.0000;
	174	155	0.01545	0.073349	0.126614	427	427	427	0	0	1	-360	360	-60.1043	0.0000	60.1043	0.0000	0.0006	0.0007	0.0000	0.0000;
	176	155	0.01457	0.07955	0.14007	324	324	324	0	0	1	-360	360	-48.4937	0.0000	48.4937	0.0000	0.0006	0.0010	0.0000	0.0000;
	177	156	0.01457	0.07955	0.14007	324	324	324	0	0	1	-360	360	-59.5801	0.0000	59.5801	0.0000	0.0007	0.0009	0.0000	0.0000;
	176	144	0.006031	0.04401	0.069793	316	316	316	0	0	1	-360	360	36.3265	0.0000	-36.3265	0.0000	0.0009	0.0007	0.0000	0.0000;
	165	140	0.011031	0.08057	0.124127	404	404	404	0	0	1	-360	360	124.4084	0.0000	-124.4084	0.0000	0.0008	0.0005	0.0000	0.0000;
	137	155	0.005831	0.04231	0.070664	383	383	383	0	0	1	-360	360	-35.3318	0.0000	35.3318	0.0000	0.0006	0.0007	0.0000	0.0000;
	170	173	0.01849	0.095599	0.159139	305	305	305	0	0	1	-360	360	-109.4444	0.0000	109.4444	0.0000	0.0006	0.0011	0.0000	0.0000;
	152	174	0.010581	0.053	0.088475	385	385	385	0	0	1	-360	360	-97.9209	0.0000	97.9209	0.0000	0.0005	0.0008	0.0000	0.0000;
	154	156	0.012521	0.091359	0.145394	453	453	453	0	0	1	-360	360	-15.6638	0.0000	15.6638	0.0000	0.0006	0.0003	0.0000	0.0000;
	136	137	0.00506	0.036539	0.063598	305	305	305	0	0	1	-360	360	-38.2894	0.0000	38.2894	0.0000	0.0007	0.0010	0.0000	0.0000;
	148	143	0.01043	0.077891	0.122065	383	383	383	0	0	1	-360	360	-5.0279	0.0000	5.0279	0.0000	0.0007	0.0006	0.0000	0.0000;
	153	181	0.007702	0.056917	0.086733	316	316	316	0	0	1	-360	360	46.0142	0.0000	-46.0142	0.0000	0.0010	0.0006	0.0000	0.0000;
	153	180	0.002256	0.016674	0.02541	333	333	333	0	0	1	-360	360	-116.8930	0.0000	116.8930	0.0000	0.0005	0.0011	0.0000	0.0000;
	175	147	0.009147	0.089554	0.215196	246	246	246	0	0	1	-360	360	-68.2826	0.0000	68.2826	0.0000	0.0008	0.0013	0.0000	0.0000;
	175	169	0.00244	0.01318	0.021296	341	341	341	0	0	0	-360	360	0.0000	0.0000	0.0000	0.0000	0.0000	0.0000	0.0000	0.0000;
	169	140	0.00355	0.02593	0.041237	404	404	404	0	0	1	-360	360	-84.9254	0.0000	84.9254	0.0000	0.0005	0.0007	0.0000	0.0000;
	170	167	0.01312	0.076219	0.116644	324	324	324	0	0	1	-360	360	105.9539	0.0000	-105.9539	0.0000	0.0011	0.0006	0.0000	0.0000;
	169	152	0.009341	0.05225	0.087701	305	305	305	0	0	1	-360	360	-66.4977	0.0000	66.4977	0.0000	0.0007	0.0009	0.0000	0.0000;
	146	135	0.006141	0.032521	0.052456	356	356	356	0	0	1	-360	360	-229.3816	0.0000	229.3816	0.0000	0.0005	0.0010	0.0000	0.0000;
	147	134	0.00438	0.03188	0.050723	453	453	453	0	0	1	-360	360	-117.6714	0.0000	117.6714	0.0000	0.0004	0.0007	0.0000	0.0000;
	164	147	0.000479	0.00331	0.005711	404	404	404	0	0	1	-360	360	-58.2945	0.0000	58.2945	0.0000	0.0005	0.0007	0.0000	0.0000;
	165	146	0.000479	0.00331	0.005711	404	404	404	0	0	1	-360	360	-71.4639	0.0000	71.4639	0.0000	0.0005	0.0007	0.0000	0.0000;
	154	143	0.010539	0.076859	0.122355	316	316	316	0	0	1	-360	360	83.6631	0.0000	-83.6631	0.0000	0.0010	0.0007	0.0000	0.0000;
	159	148	0.00469	0.034651	0.053821	383	383	383	0	0	1	-360	360	-89.1026	0.0000	89.1026	0.0000	0.0005	0.0008	0.0000	0.0000;
	149	141	0.006469	0.0413	0.069212	383	383	383	0	0	1	-360	360	91.3252	0.0000	-91.3252	0.0000	0.0008	0.0005	0.0000	0.0000;
	168	141	0.00105	0.007211	0.01028	316	316	316	0	0	1	-360	360	-5.0477	0.0000	5.0477	0.0000	0.0008	0.0008	0.0000	0.0000;
	168	159	0.006099	0.044831	0.070954	316	316	316	0	0	1	-360	360	-16.3922	0.0000	16.3922	0.0000	0.0007	0.0008	0.0000	0.0000;
	176	136	0.002211	0.01655	0.024781	316	316	316	0	0	1	-360	360	-58.2311	0.0000	58.2311	0.0000	0.0006	0.0010	0.0000	0.0000;
	178	177	0.005169	0.036979	0.058951	316	316	316	0	0	1	-360	360	-2.3517	0.0000	2.3517	0.0000	0.0008	0.0008	0.0000	0.0000;
	181	173	0.002401	0.017789	0.027588	381	381	381	0	0	1	-360	360	-80.1196	0.0000	80.1196	0.0000	0.0005	0.0009	0.0000	0.0000;
	157	138	0.00274	0.02696	0.70592	977	977	977	0	0	1	-360	360	86.9790	0.0000	-86.9790	0.0000	0.0002	0.0002	0.0000	0.0000;
	163	139	0.0017	0.01733	0.45632	915	915	915	0	0	1	-360	360	-53.3092	0.0000	53.3092	0.0000	0.0003	0.0003	0.0000	0.0000;
	161	162	0.00136	0.01574	0.433664	1469	1469	1469	0	0	1	-360	360	-56.6469	0.0000	56.6469	0.0000	0.0002	0.0002	0.0000	0.0000;
...